72
mol15-0
C    -4.73749    1.35540    0.18087
S    -3.00704    1.03108    0.58586
C    -2.53322    0.12215   -0.92020
C    -1.06674   -0.23858   -0.81001
C    -0.47649   -1.04790   -1.94584
Si    -1.19869   -1.05725   -3.71922
Cl    -2.61226    0.32413   -4.11790
Cl     0.39641   -0.53383   -4.85042
Cl    -1.90618   -2.83100   -4.35395
Si    -4.99687   -2.31464   -2.43824
Cl    -6.71606   -2.17326   -1.31053
Cl    -5.50054   -1.51780   -4.27619
Cl    -4.67777   -4.32308   -2.75801
C     0.77065   -1.50754   -1.63581
Si     4.85866   -1.30719   -3.23941
Cl     3.56480   -0.89456   -4.66824
Cl     5.17103   -3.22134   -2.80095
Cl     6.56309   -0.29330   -3.42490
Si     1.16668   -3.28722   -2.21701
Cl     1.74872   -3.45487   -4.14263
Cl     2.56507   -4.29547   -1.13350
Cl    -0.49886   -4.39892   -1.95584
C    -0.14401    0.98509   -0.79137
Si    -0.84726    4.66536    3.03679
Cl     0.31350    6.15715    2.39585
Cl    -2.43884    4.33835    1.86500
Cl    -1.35754    4.90525    4.96865
Si    -0.71262    2.65758   -1.53085
Cl     0.10516    4.27922   -0.64080
Cl    -0.06575    2.57490   -3.46057
Cl    -2.63855    3.25704   -1.70694
C     1.12174    0.69278   -0.43655
Si     3.38684    2.96692   -1.46088
Cl     5.40196    2.77456   -1.22313
Cl     2.98540    1.83644   -3.13851
Cl     3.06490    4.86290   -2.04639
Si     2.19499    2.15933    0.46526
Cl     3.54589    1.15030    1.68414
Cl     0.44115    2.19270    1.85609
Cl     2.73712    4.12403    1.39087
C     1.38227   -0.82852   -0.39133
C     0.47037   -1.32665    0.74855
Si     1.16484   -2.14572    2.36717
Cl    -1.96498   -3.87469    0.79750
Cl     0.15108   -3.79313    2.99964
Cl     2.96876   -3.07410    2.04833
Si     1.53185   -0.92378    4.40996
Cl     3.29557   -1.64538    5.10953
Cl     1.66529    1.07240    4.49313
Cl     0.10140   -1.45355    5.73640
C    -0.82586   -1.06032    0.46991
Si    -4.02273    1.58618    4.76123
Cl    -4.83253    3.43324    4.73397
Cl    -2.16009    1.65663    3.99108
Cl    -3.93318    0.90957    6.65201
Si    -2.29512   -1.93327    1.35238
Cl    -2.09096   -1.51076    3.31639
Cl    -4.30581   -1.84806    1.07580
Cl    -5.18805    0.37026    3.66432
C     2.84659   -1.19022   -0.21308
S     4.12687   -0.31995   -1.19341
C     5.51883   -0.91387   -0.19160
H    -4.78163    1.92764   -0.74059
H    -5.27808    0.42009    0.07786
H    -5.14631    1.93697    1.00016
H    -2.73641    0.77040   -1.76249
H    -3.15320   -0.77659   -1.03787
H     3.15169   -0.89488    0.78668
H     3.01183   -2.24962   -0.35179
H     6.43958   -0.59388   -0.66582
H     5.43279   -0.44697    0.78444
H     5.48396   -1.99427   -0.10333
