72
mol16-0
C     5.28583   -0.20309   -0.83785
S     3.60554   -0.03938   -1.46284
C     2.76758   -0.56778    0.05225
C     1.25211   -0.58908    0.02479
C     0.65306   -1.25646    1.24940
Ge     1.77292   -2.11217    2.61441
F     3.44780   -2.46775    2.49483
F     1.20193   -3.58548    3.25010
F     1.82505   -3.39808    0.11034
Ge     2.52045    1.80494    3.56351
F     1.33711   -1.17573    4.11086
F     3.24030    0.17463    2.87689
F     0.93933    3.82468    3.33900
C    -0.67151   -1.33632    1.25761
Ge    -0.84971    0.14147    4.38617
F     0.74722    1.14347    2.74047
F    -0.17457    0.40448    6.03638
F    -0.95996    2.61723    4.41308
Ge    -1.59402   -2.70646    2.34187
F    -2.91703   -0.58972    2.74419
F    -1.38500   -2.49580    4.06062
F    -1.04973   -4.23929    1.85858
C     0.56202    0.74577   -0.06059
Ge     1.63886    2.39395   -0.37245
F     2.58197    2.50597    1.39357
F     1.98029    4.01630   -0.82287
F     3.61851    1.78222   -0.73852
Ge     0.80867    3.74445   -3.91772
F     1.70791    1.73394   -2.32158
F    -0.58402    3.26868   -1.55220
F     1.62676    4.74421   -5.22080
C    -0.76002    0.71377   -0.08075
Ge    -1.77899    2.28647   -0.70349
F    -4.23904    1.37994    0.00275
F    -2.88573    2.06152   -2.07206
F    -2.64059    3.54020    0.07502
Ge    -0.65843    3.32383    2.79378
F    -1.63763    4.68354    2.83198
F    -1.70445    1.99386    2.19571
F    -0.04073    3.40950    1.07138
C    -1.35003   -0.66758    0.06422
C    -0.69395   -1.42951   -1.09681
Ge    -2.34962    1.10395   -4.33798
F    -3.03054   -1.07511   -2.99566
F    -1.20442   -2.53730   -4.10284
F    -1.46304    2.77466   -4.50604
Ge    -1.75369   -2.25601   -2.51297
F    -2.88616   -3.45379   -2.01092
F     0.00073   -4.00719   -2.02313
F    -3.28369   -3.10567    2.22648
C     0.63128   -1.42226   -1.09453
Ge     1.05815   -0.00001   -4.18697
F     1.46256    1.94717   -4.95598
F    -0.86466    0.60170   -2.80294
F    -0.60670    0.12639   -5.36472
Ge     1.49332   -3.07583   -1.77420
F     1.55285   -2.35668   -3.56085
F     2.69336   -4.23093   -2.16908
F     3.61840   -1.63527   -2.08493
C    -2.86228   -0.72677    0.08713
S    -3.64118    0.40611    1.30074
C    -5.20514   -0.47042    1.43984
H     5.34730    0.21831    0.15821
H     5.55508   -1.25355   -0.83410
H     5.94055    0.34763   -1.50420
H     3.10189    0.10483    0.83722
H     3.14141   -1.57449    0.23956
H    -3.19640   -1.74411    0.29570
H    -3.26198   -0.40298   -0.87246
H    -5.87532    0.15035    2.02447
H    -5.04463   -1.41564    1.94473
H    -5.61343   -0.61634    0.44728
