144
mol31-0
C     3.39297    0.80520    5.52115
S     3.39375    0.89507    3.70958
C     1.63740    0.49126    3.40349
Si     0.96211    0.33715    1.56590
Si     0.36591    2.59784    0.61739
C     1.93885    3.76007    0.57877
C     1.73579    5.10768   -0.12031
C     2.57150    4.01783    1.94591
C    -1.01009    3.45624    1.71558
C    -1.30830    4.91136    1.35518
C    -0.74945    3.38777    3.21628
Si    -0.64258    2.15616   -1.59691
C    -2.29890    3.19826   -1.72208
C    -3.38974    2.50504   -2.53503
C    -2.14704    4.64017   -2.22554
C     0.40582    2.40311   -3.22921
C     1.67610    3.22246   -3.03486
C    -0.31505    2.93661   -4.46607
Si     2.60266   -0.89826    0.12754
C     3.40484   -2.47495    0.96241
C     4.26272   -3.32205    0.01916
C     4.19366   -2.20087    2.23955
C     4.00511    0.33759   -0.42243
C     4.61464    1.14762    0.71274
C     5.14140   -0.31164   -1.21090
Si     1.39145   -1.59127   -1.87661
C     2.11961   -1.25910   -3.67259
C     2.97997   -2.37777   -4.27126
C     2.90013    0.05034   -3.80477
C     1.09086   -3.51805   -1.98681
C     0.70439   -4.13021   -0.64314
C     0.05419   -3.89066   -3.04759
Si    -0.90009   -0.32877   -1.56782
Si    -2.43918   -1.37320    0.25538
C    -4.16439   -0.48422    0.04916
C    -5.40037   -1.18629    0.64593
C    -4.07090    0.94886    0.55983
C    -2.75332   -3.20705   -0.35767
C    -2.84149   -4.24944    0.75242
C    -3.93232   -3.39735   -1.31293
Si    -1.26809   -1.00549    2.36981
C    -2.37116    0.05692    3.60182
C    -1.74030    0.32029    4.96944
C    -3.76939   -0.51781    3.84639
C    -0.74869   -2.46498    3.57328
C    -1.90415   -3.38268    4.01767
C     0.40070   -3.28707    3.00751
C    -1.96392   -0.83347   -3.12337
S    -1.24932   -0.40552   -4.74044
C    -2.51075   -1.15597   -5.80504
H     2.72856    1.56490    5.92712
H     4.41280    0.99351    5.84057
H     3.07864   -0.18609    5.84060
H     1.46543   -0.44920    3.92696
H     1.08417    1.27071    3.92317
H     2.67153    3.19899   -0.00975
H     2.69177    5.50409   -0.46046
H     1.30630    5.83694    0.56175
H     1.07846    5.02232   -0.97891
H     1.94198    4.66984    2.54531
H     3.53544    4.51125    1.82766
H     2.73405    3.09641    2.49453
H    -1.91984    2.87692    1.52366
H    -2.20522    5.24920    1.87389
H    -1.46591    5.04104    0.29273
H    -0.49238    5.55729    1.66571
H    -0.62805    2.36032    3.53397
H     0.14247    3.94648    3.48532
H    -1.58682    3.81720    3.76673
H    -2.67037    3.25990   -0.69560
H    -3.63714    1.54261   -2.10062
H    -3.07518    2.35003   -3.56299
H    -4.29405    3.11275   -2.55053
H    -2.97238    5.25455   -1.86753
H    -2.17009    4.66943   -3.31027
H    -1.21659    5.09502   -1.89234
H     0.70686    1.38497   -3.48279
H     2.32647    3.12571   -3.90325
H     2.22943    2.89922   -2.15756
H     1.44040    4.27741   -2.92406
H     0.32550    2.81417   -5.33804
H    -1.22966    2.38701   -4.65611
H    -0.54063    3.99386   -4.37256
H     2.55008   -3.09266    1.24653
H     3.78207   -3.45976   -0.94492
H     5.23257   -2.86150   -0.14402
H     4.43750   -4.30437    0.45657
H     3.60580   -1.62842    2.94858
H     4.48416   -3.13801    2.71374
H     5.10024   -1.64066    2.02617
H     3.49830    1.04688   -1.08669
H     5.29256    1.90508    0.32313
H     5.17946    0.51089    1.38755
H     3.84717    1.64330    1.29268
H     4.77358   -1.03077   -1.93452
H     5.82367   -0.82114   -0.53426
H     5.71556    0.44780   -1.74033
H     1.23469   -1.16321   -4.30879
H     2.42742   -3.30446   -4.38751
H     3.32748   -2.07736   -5.25862
H     3.85612   -2.57384   -3.65534
H     3.97001   -0.13036   -3.73785
H     2.63519    0.75840   -3.02918
H     2.71009    0.51329   -4.77252
H     2.02599   -3.99723   -2.29297
H     0.10462   -3.43503   -0.05889
H     1.58855   -4.38578   -0.06630
H     0.13560   -5.04837   -0.78741
H     0.19767   -3.34034   -3.96858
H     0.11385   -4.94932   -3.27914
H    -0.94627   -3.69223   -2.69190
H    -4.32587   -0.41191   -1.03086
H    -6.08887   -1.50233   -0.13480
H    -5.13752   -2.06803    1.22736
H    -5.94657   -0.50946    1.30034
H    -4.07325    0.97593    1.64286
H    -3.14989    1.40740    0.21311
H    -4.91409    1.54305    0.21093
H    -1.85284   -3.44206   -0.92490
H    -3.71912   -4.09147    1.37625
H    -2.91542   -5.25132    0.32896
H    -1.95670   -4.21525    1.37886
H    -3.84604   -4.35626   -1.82517
H    -4.87589   -3.39735   -0.77593
H    -3.96766   -2.61589   -2.06677
H    -2.49208    1.02444    3.10812
H    -1.74542   -0.58170    5.57611
H    -2.30967    1.07865    5.50689
H    -0.71618    0.66540    4.88598
H    -4.41581    0.23538    4.29837
H    -4.23255   -0.85623    2.92752
H    -3.72170   -1.35868    4.53328
H    -0.34934   -1.98847    4.47478
H    -2.18466   -3.19123    5.05214
H    -2.79168   -3.25616    3.40503
H    -1.60779   -4.42881    3.95160
H     0.73878   -4.02836    3.73072
H     0.10582   -3.81103    2.10324
H     1.23709   -2.63809    2.76719
H    -2.10715   -1.90989   -3.14269
H    -2.94534   -0.36353   -3.09428
H    -2.23182   -0.95031   -6.83353
H    -2.53798   -2.22974   -5.63200
H    -3.48012   -0.71335   -5.58592
