72
mol45-0
C    -6.57037    0.65413    0.08502
S    -4.93147    0.88925   -0.64853
C    -3.89626    0.18503    0.67927
Si    -2.08582   -0.32144    0.16725
Si    -1.98738   -2.63676   -1.15440
Ge    -4.71455   -0.97272   -2.72654
Cl    -3.82070   -3.54184   -4.00611
Cl    -6.69602   -0.55442   -3.48721
Cl     0.14365    0.31233   -2.47850
Ge    -4.74791   -3.56318    1.57623
Cl    -5.39381   -5.59313    1.28474
Cl    -2.33923   -4.00636    0.52843
Cl    -5.32973   -2.58530   -0.99194
Si    -2.11288   -4.10262   -2.96018
Ge     1.59192   -2.06590   -3.55378
Cl     2.37355   -1.98130   -5.59287
Cl     3.14962    2.66715   -3.81880
Cl    -0.69138   -2.78551   -4.24827
Ge     1.53044   -5.54970   -1.15055
Cl     3.06460   -7.06525   -1.27077
Cl     2.98865   -3.94250    0.03466
Cl     2.15399   -4.41021   -3.22372
Si     1.46761   -0.02441    3.62938
Ge    -0.98340    0.92596    4.83045
Cl    -2.18239   -1.19087    5.27515
Cl    -1.35066    1.81997    6.78459
Cl    -2.95932    1.90682    3.75127
Ge    -1.19289   -3.22742    4.16092
Cl    -3.47910   -3.96791    3.67646
Cl    -1.32385   -0.78455    2.07033
Cl    -1.01572   -4.36304    5.99621
Si     2.61847   -0.59608   -1.30205
Ge     3.92150    0.92864    1.88481
Cl     5.98253    1.20928    2.44078
Cl     3.95794   -1.49869    2.22031
Cl     2.87801    1.20177    4.56156
Ge     1.68334   -2.77007    1.74822
Cl     1.83429   -4.48262    3.07692
Cl     0.16170   -2.72392   -0.89409
Cl     1.41124   -1.59970    4.96623
Si     3.60896    1.32537   -2.41670
Si     0.28285    3.66347   -1.66097
Ge     2.44897    3.87486    1.51881
Cl     4.34351    2.35874   -0.73129
Cl     1.22252    1.09812    0.29217
Cl     3.21940    4.64062    3.38749
Ge     2.73615    5.89420   -2.31266
Cl     3.20579    5.70603    0.26685
Cl     3.00772    8.07609   -2.35005
Cl     4.86115    5.33659   -2.75649
Si    -0.64675    1.60647   -0.91893
Ge    -2.06128    3.52779    1.98589
Cl    -0.14436    4.86317    0.10602
Cl     0.10687    3.00371    2.91257
Cl    -2.41368    5.33002    3.10914
Ge    -3.58316    3.41492   -1.90445
Cl    -4.99643    4.34075   -3.25617
Cl    -3.07206    1.56855   -3.20238
Cl    -1.30023    4.49979   -2.86393
C     5.12013    0.22395   -2.98996
S     4.87704   -1.46452   -2.33131
C     5.80973   -1.36095   -0.78211
H    -7.28327    1.11672   -0.59082
H    -6.77522   -0.40965    0.16883
H    -6.60429    1.13917    1.05529
H    -4.41977   -0.70452    1.03298
H    -3.87135    0.91240    1.49230
H     5.15425    0.11745   -4.07161
H     6.09627    0.57281   -2.66298
H     5.50915   -2.20843   -0.17466
H     5.58264   -0.43143   -0.26694
H     6.87011   -1.42532   -1.00480
