72
mol63-0
C     5.74208   -2.59017   -0.62110
S     4.44839   -1.36349   -0.96936
C     4.34766   -0.49473    0.61771
Ge     2.57439    0.60474    0.68021
Ge     1.66703    2.39861   -1.19216
C     3.44849    2.26636   -2.26756
Cl     3.35284    0.89925   -3.37431
Cl     3.27196    3.77033   -3.19025
Cl     5.04168    2.23588   -1.52079
C     2.51030    3.46818    0.47134
Cl     3.80455    2.58223    1.32785
Cl     3.03052    5.10605    0.18088
Cl     1.16967    3.45017    1.64534
Ge    -1.96312    2.25793   -1.81109
C    -0.91125    2.99736   -3.49737
Cl    -0.16644    4.57721   -3.63877
Cl     0.29649    1.80157   -3.97330
Cl    -2.29139    2.91087   -4.61674
C    -1.59357    3.88808   -0.51068
Cl    -2.95927    4.47064   -1.54883
Cl    -2.17239    3.74579    1.14656
Cl    -0.29850    5.04397   -0.57861
Ge     1.17396    0.55822    2.91441
C     0.95824   -1.50555    2.81107
Cl     2.31176   -2.57108    2.51886
Cl    -0.09897   -1.58320    1.33345
Cl     0.04982   -2.07606    4.17961
C     2.66653    0.71163    4.34809
Cl     2.30937   -0.20934    5.79038
Cl     2.69139    2.43435    4.72509
Cl     4.24885    0.25202    3.73439
Ge    -1.51863    0.97515    2.44272
C    -2.88726   -0.73964    3.23019
Cl    -2.71350   -2.41161    2.69078
Cl    -3.38136   -0.76392    4.90121
Cl    -4.33868   -0.19820    2.25451
C    -1.61508    2.01993    4.23417
Cl    -0.97022    1.15888    5.62584
Cl    -3.31847    2.42370    4.44571
Cl    -0.70634    3.51616    4.06940
Ge    -3.26556   -0.77062    0.14407
Ge    -1.35257   -2.79019   -1.74624
C    -2.67632   -1.72357   -3.07839
Cl    -4.41992   -1.89539   -3.15112
Cl    -1.98509   -3.04406   -4.08678
Cl    -2.23171   -0.16424   -3.76041
C    -3.13622   -3.86743   -0.93681
Cl    -3.90501   -5.06869   -1.95998
Cl    -4.45240   -2.93788   -0.11645
Cl    -2.20987   -4.68704    0.33520
Ge     2.30247   -2.51137   -0.56540
C     2.91011   -4.54072   -0.42451
Cl     3.80908   -4.98862    1.02998
Cl     1.24370   -5.16672   -0.23065
Cl     3.66343   -5.30045   -1.81572
C     1.93307   -2.62761   -2.70926
Cl     3.28683   -2.41696   -3.79373
Cl     0.81960   -1.21982   -2.91581
Cl     0.99845   -4.03374   -3.23305
C    -4.82468    0.25851   -0.70431
S    -4.72982    1.96342   -0.07198
C    -6.28308    2.61717   -0.75594
H     6.66703   -2.06344   -0.39361
H     5.85514   -3.17792   -1.52635
H     5.44235   -3.22841    0.20646
H     4.40201   -1.23240    1.41067
H     5.20602    0.16929    0.67247
H    -5.80127   -0.14434   -0.42701
H    -4.74509    0.32061   -1.78589
H    -6.38758    3.62533   -0.36925
H    -6.23779    2.62920   -1.84018
H    -7.10659    2.00002   -0.40865
