72
mol73-0
C    -6.20380   -1.88503   -0.50239
S    -4.54249   -2.54680   -0.80696
C    -3.62472   -1.04460   -1.29227
Ge    -1.63610   -1.16699   -0.69961
Ge     0.84809   -4.15187   -1.62758
Ge     0.13104   -5.04325    1.60854
Cl    -0.42911   -6.81889    2.61349
Cl     0.83343   -6.20630   -0.55312
Cl    -2.08356   -4.55911    0.51493
Ge    -2.59653   -3.98123   -2.93778
Cl    -0.47081   -5.12596   -3.32107
Cl    -3.17001   -3.80720   -4.98622
Cl    -1.09871   -1.92281   -2.91758
Ge     2.66853   -1.00316   -0.29191
Ge     3.28819   -2.03961   -2.86289
Cl     5.27766   -2.30685   -3.70703
Cl     2.68538   -4.45300   -3.03920
Cl     2.12986   -1.40278   -4.56571
Ge     5.50386   -3.59545    0.88782
Cl     3.18548   -3.89008    0.22919
Cl     4.59935   -1.46012    1.78645
Cl     5.40201   -4.71085    2.70395
Ge    -1.00462    1.32995   -1.16503
Ge    -1.78385    0.95166   -3.88547
Cl    -0.43930    1.30772   -5.60183
Cl    -3.55358    0.19996   -4.88245
Cl    -2.53894    3.39899   -3.74854
Ge    -3.84954    2.82954   -1.63820
Cl    -5.78446    3.45091   -2.33032
Cl    -4.81059    1.52311    1.10548
Cl    -3.28868    4.88198   -0.54650
Ge     1.53845    3.91640   -0.32375
Ge     0.53215    3.54971   -3.72876
Cl     1.08742    4.96353   -5.22507
Cl     1.20715    0.45009   -1.51814
Cl     2.78492    3.62437   -2.31525
Ge    -1.18716    5.80321    0.44505
Cl    -1.77757    7.84674    0.20107
Cl    -0.04187    5.28443   -1.95281
Cl     2.61404    5.64492    0.38324
Ge     2.93816    0.85550    2.11686
Ge    -0.48012    0.01191    4.39314
Ge     1.88202   -2.57636    2.91362
Cl     2.07876   -4.28657    4.19611
Cl     1.90476   -1.00041    4.67511
Cl    -1.10118   -0.67052    6.29992
Ge     1.79019    2.63277    4.97863
Cl     2.51298    4.61665    5.28461
Cl     1.55602    2.87583    2.52307
Cl     4.10965    1.55501    3.89047
Ge    -2.91314    0.52434    1.68054
Ge    -2.73751    3.75774    3.74533
Cl    -2.02447    5.76496    3.07683
Cl    -1.70782    2.67055    1.67060
Cl    -0.85757    3.18487    4.94185
Ge    -3.42716   -2.80418    1.57221
Cl    -4.93607   -4.13669    2.35158
Cl    -0.79015   -2.20713    3.08567
Cl    -3.26707    0.67555    3.92776
C     4.27641    1.72098    0.74674
S     4.25256    0.84816   -0.85344
C     5.92382    0.14198   -0.93282
H    -6.15724   -1.09908    0.24705
H    -6.59453   -1.50108   -1.43992
H    -6.81379   -2.71143   -0.15136
H    -3.73524   -0.95811   -2.37368
H    -4.14029   -0.21108   -0.81862
H     5.29999    1.68467    1.11451
H     4.03362    2.76226    0.52303
H     6.15175   -0.40043   -0.02003
H     5.95402   -0.52083   -1.79491
H     6.61782    0.96478   -1.07635
