36
mol76-0
C     6.19508   -0.47818    0.05461
S     5.15736   -1.62394   -0.89127
C     4.23384   -0.42525   -1.92135
Ge     3.07649   -0.59395   -0.27601
Ge     1.77304    3.44327   -0.63864
Br     0.79709    1.28637   -1.40818
Br     3.80880    3.22497   -1.82091
Ge    -2.73853    2.42696   -1.35848
Br    -4.87352    3.06188   -0.56079
Br    -1.41633    3.53048    0.82657
Ge     1.42544   -2.56950   -1.26937
Br     1.91375   -4.66419   -2.28025
Br     1.12631   -3.26019    1.03661
Ge    -1.34909   -2.17431   -0.74450
Br    -2.71154   -3.97654   -0.14352
Br    -3.00117   -0.84413   -2.47280
Ge    -2.65549    0.00697   -0.07601
Ge    -1.90978    1.97345    2.96724
Br    -0.09057    0.21519    2.38834
Br    -0.37965    3.11680    4.42408
Ge     2.36089    0.95673    3.82141
Br     3.05835    2.27985    1.82866
Br     3.76378   -0.88336    3.22467
C    -4.42446   -0.45666    0.91787
S    -5.66880   -1.52775    0.14311
C    -6.47204   -0.34165   -0.96942
H     5.62916    0.41281    0.32448
H     6.52004   -1.00213    0.94860
H     7.04621   -0.20286   -0.56138
H     4.83195    0.45478   -2.12854
H     3.95118   -0.91060   -2.85349
H    -4.92464    0.47344    1.20765
H    -4.13368   -0.99134    1.82707
H    -5.79171   -0.05811   -1.77055
H    -6.79983    0.53014   -0.40767
H    -7.32813   -0.85966   -1.38794
