72
mol72-0
C     6.86725   -0.57191   -0.95732
S     5.87141    0.85347   -1.51380
C     5.48440    1.62186    0.09480
Ge     4.51931    0.63970    1.71326
Ge     1.47389    0.13063    0.21430
Ge     1.58150    3.21938   -1.04642
F     2.60624    0.90468   -1.68719
F     0.95990    2.47783   -3.39959
F     3.17819    4.20201   -0.95875
Ge     1.37376    2.98841    2.96982
F     2.70804    1.94913    1.09860
F     0.81895    3.98999    0.98618
F     0.13332    0.84166    2.26610
Ge    -1.24082    1.28503   -0.07675
Ge    -1.49694    2.66939   -3.13925
F    -0.03375    0.19544   -1.99902
F    -1.19058    3.57231   -1.02513
F    -1.37212    4.34990   -3.90204
Ge    -1.69348    4.60206    1.29254
F    -0.49902    4.16027    3.19442
F    -2.61772    2.47627    1.09380
F    -3.06812    4.57382    2.58353
Ge    -0.67813   -1.45490    2.62056
Ge     1.49356   -0.21527    4.44328
F     0.35564    2.05047    4.72047
F     2.85810    1.26965    3.77304
F     3.01070   -1.17505    4.92805
Ge     2.10480   -3.34464    0.93495
F     3.87907   -0.81025    0.35189
F     1.76450   -1.32873    2.21207
F     0.58788   -4.07874   -0.54772
Ge    -4.02998   -0.70058    2.87860
Ge    -1.92880    2.13319    3.84437
F    -1.97263   -0.30254    4.12212
F    -3.10123    1.99583    5.30201
F    -2.57545   -0.14733    1.53093
Ge    -1.74997   -3.95657    0.64380
F    -3.06638   -2.41217    2.64075
F    -1.89080   -5.78918    0.80784
F     0.30017   -3.56482    2.24478
Ge    -3.06462   -0.37276   -1.11189
Ge    -0.24256   -2.27322   -2.09382
Ge    -4.15895   -2.71073   -1.88692
F    -3.93259   -3.55529    0.02483
F    -0.53460   -1.32014    0.23988
F    -2.17303   -3.56662   -2.00045
Ge    -2.58733   -0.41494   -4.91564
F    -3.63811   -1.93443   -4.04262
F    -3.42156    0.65780   -3.13641
F    -0.90316   -1.43523   -4.17920
Ge     4.00442   -0.80301   -2.23636
Ge     1.24655    0.43390   -4.01154
F     1.74640   -1.95257   -3.53352
F     3.72169    0.17855   -3.96826
F    -0.85280    1.10832   -4.94596
Ge     2.51501   -3.97763   -2.58178
F     4.21831   -3.40383   -3.15854
F     3.42102   -4.26417   -0.71127
F     1.91246   -1.92338   -0.94417
C    -4.86878    0.33305   -0.26315
S    -5.48893   -1.04882    0.73251
C    -6.97920   -0.29524    1.49728
H     7.77919   -0.19812   -0.50363
H     7.10565   -1.16993   -1.83867
H     6.29910   -1.16381   -0.23973
H     6.43369    2.03957    0.45123
H     4.83398    2.46205   -0.16445
H    -5.61407    0.55826   -1.02512
H    -4.69850    1.20166    0.37278
H    -7.48217   -1.07930    2.05396
H    -7.62502    0.06799    0.70454
H    -6.69601    0.52239    2.16232
