36
mol18-0
C     5.20502    1.26934   -0.10388
S     3.52200    1.44262   -0.75450
C     2.76935    0.14609    0.30421
C     1.26865   -0.07574    0.07846
C     0.77508   -1.09709    1.13357
F     0.91203   -0.58932    2.37478
F     1.53610   -2.20785    1.11546
C    -0.71730   -1.48093    0.89399
F    -0.79145   -2.77538    0.52953
F    -1.39626   -1.39511    2.05500
C     0.94274   -0.66579   -1.31465
F     1.54179   -1.86656   -1.45368
F     1.42495    0.09982   -2.30438
C    -0.60544   -0.82882   -1.51034
F    -1.00091    0.02776   -2.46562
F    -0.87239   -2.06209   -1.97840
C    -1.36521   -0.57862   -0.18526
C    -1.10923    0.88653    0.23682
F    -1.72290    1.75850   -0.57791
F    -1.63475    1.11031    1.46108
C     0.42578    1.20963    0.25698
F     0.68034    2.09771   -0.71761
F     0.74269    1.82268    1.41340
C    -2.85995   -0.95053   -0.27365
S    -3.82810   -0.08222   -1.56189
C    -4.93493    0.89158   -0.50345
H     5.21641    1.50088    0.95679
H     5.81001    1.98782   -0.64622
H     5.57110    0.26387   -0.28822
H     3.29039   -0.79388    0.10806
H     2.92102    0.44200    1.34504
H    -3.32792   -0.74272    0.68732
H    -2.92350   -2.01885   -0.48827
H    -5.57579    0.22130    0.06170
H    -4.35594    1.53516    0.15127
H    -5.53341    1.49790   -1.17543
