72
mol1-0
C    -5.50795    0.16559    0.50868
S    -4.01086   -0.78177    0.89651
C    -2.82223    0.34396    0.04930
C    -1.29418    0.12339    0.04535
C    -0.74006    1.14618   -1.07334
C    -1.35988    2.56713   -0.93150
C    -1.20078    0.88658   -2.53364
C     0.84251    1.14803   -0.99289
C     1.52471    1.12311   -2.39195
C     1.35424    2.54926   -0.56067
C    -0.92005   -1.37829   -0.35731
C    -1.33066   -2.47349    0.65813
C    -1.78619   -1.87320   -1.54693
C     0.64029   -1.44697   -0.62269
C     0.91823   -1.79935   -2.10784
C     1.31716   -2.69660    0.00054
C     1.29530   -0.09614   -0.07004
C     0.86600    0.16738    1.44766
C     1.75862    1.25549    2.10308
C     1.17664   -0.97460    2.44694
C    -0.68251    0.50083    1.47454
C    -0.91132    1.95359    1.96876
C    -1.44715   -0.21384    2.62029
C     2.83069   -0.15264   -0.22173
S     3.92369   -1.16900    0.86003
C     5.48151   -0.75900    0.02681
H    -5.41150    1.18180    0.88636
H    -5.67172    0.17363   -0.56692
H    -6.32847   -0.33985    1.00570
H    -3.04113    1.31290    0.49461
H    -3.19086    0.34718   -0.97428
H    -0.85365    3.24865   -1.60980
H    -1.34326    3.01481    0.04388
H    -2.39950    2.53476   -1.25056
H    -0.67798    0.10332   -3.05472
H    -2.26789    0.69626   -2.58750
H    -1.03339    1.79224   -3.11426
H     1.48689    0.20111   -2.94018
H     2.57461    1.38550   -2.28004
H     1.08328    1.89220   -3.02001
H     1.25762    3.22774   -1.40665
H     0.81712    3.01189    0.24916
H     2.41202    2.53054   -0.31857
H    -1.31667   -3.43644    0.15220
H    -2.34936   -2.32609    0.98990
H    -0.68770   -2.58059    1.51392
H    -1.47310   -2.87595   -1.82510
H    -2.81633   -1.95092   -1.20710
H    -1.78353   -1.28431   -2.44487
H     0.67700   -2.84993   -2.25485
H     0.33830   -1.26406   -2.84087
H     1.97384   -1.70069   -2.34452
H     2.31536   -2.79583   -0.41636
H     0.76705   -3.58738   -0.28910
H     1.42793   -2.71248    1.06673
H     1.82483    2.20842    1.61251
H     2.76758    0.85912    2.19021
H     1.40913    1.44385    3.11465
H     2.18561   -1.33923    2.31073
H     1.13770   -0.57062    3.45626
H     0.49179   -1.80412    2.43467
H    -0.71586    1.97938    3.03865
H    -1.94924    2.25091    1.84885
H    -0.27377    2.70845    1.53994
H    -2.42951    0.23933    2.71854
H    -1.60584   -1.26920    2.51880
H    -0.92926   -0.04513    3.56015
H     3.24409    0.84640   -0.10068
H     3.07712   -0.50581   -1.22155
H     5.69290    0.30227    0.14018
H     6.25324   -1.34556    0.51274
H     5.41886   -1.02390   -1.02701
