72
mol29-0
C     6.33662   -1.20072    0.55848
S     4.76512   -0.39671    0.98875
C     3.68563   -1.18557   -0.24452
Si     1.84647   -0.58548   -0.09619
Si     1.71987    1.78997   -0.34008
C     2.41428    2.65064    1.22132
C     2.79945    2.37436   -1.81568
Si    -0.56080    2.39120   -0.59604
C    -0.88829    2.89572   -2.41911
C    -1.02136    3.90805    0.47893
Si     0.89923   -1.27833    1.98618
C     1.98331   -0.74484    3.47233
C     0.79745   -3.19443    2.04601
Si    -1.28696   -0.36643    2.11829
C    -2.57988   -1.65236    2.71759
C    -1.28845    1.05142    3.40307
Si    -1.87951    0.47683   -0.03950
Si    -1.59453   -1.22630   -1.69542
C    -2.49529   -2.83113   -1.15385
C    -2.39006   -0.71724   -3.36772
Si     0.71662   -1.66048   -1.91051
C     1.09446   -3.54301   -1.95387
C     1.34173   -0.96206   -3.58430
C    -3.77050    0.90649   -0.10406
S    -4.24065    2.12131    1.16548
C    -6.01015    2.27426    0.78250
H     6.60268   -0.95552   -0.46708
H     7.09034   -0.81805    1.23952
H     6.23954   -2.27728    0.67788
H     4.09679   -0.94956   -1.22573
H     3.75983   -2.26205   -0.09209
H     1.77154    2.44186    2.07124
H     3.40803    2.29107    1.46866
H     2.46877    3.73014    1.11412
H     3.83838    2.08140   -1.69202
H     2.77913    3.45276   -1.94608
H     2.44278    1.92856   -2.73954
H    -0.46025    2.15675   -3.09004
H    -0.44731    3.85549   -2.67031
H    -1.94947    2.95829   -2.64013
H    -0.93612    3.64973    1.52982
H    -0.37253    4.76174    0.29830
H    -2.04589    4.22926    0.31383
H     2.14571    0.32794    3.43883
H     1.52375   -0.97631    4.43025
H     2.96279   -1.21422    3.45226
H     0.53531   -3.56607    3.03185
H     0.03769   -3.54629    1.35435
H     1.73569   -3.66127    1.76206
H    -3.57813   -1.22562    2.76105
H    -2.35107   -2.04520    3.70435
H    -2.61487   -2.49447    2.03269
H    -2.22451    1.60067    3.39266
H    -0.49498    1.75583    3.17226
H    -1.12235    0.69731    4.41638
H    -2.53273   -3.57959   -1.93934
H    -3.51651   -2.63929   -0.83861
H    -1.97431   -3.27281   -0.30985
H    -2.28811   -1.48276   -4.13177
H    -1.90898    0.18076   -3.74279
H    -3.44959   -0.49798   -3.26639
H     2.15940   -3.74447   -2.03296
H     0.60529   -4.05079   -2.78035
H     0.74540   -4.00693   -1.03657
H     0.98001   -1.52620   -4.43841
H     2.42601   -0.94652   -3.64052
H     0.99751    0.06091   -3.70221
H    -4.04268    1.33194   -1.06969
H    -4.37989    0.01864    0.06293
H    -6.42852    2.99429    1.47882
H    -6.49516    1.30912    0.90878
H    -6.13247    2.62933   -0.23809
