60
mol21-0
C    -5.27977    0.42856    1.18460
S    -3.53449    0.87233    1.52796
C    -2.84045   -0.04308    0.09482
C    -1.31278   -0.05947    0.00038
C    -0.66818   -1.14366    0.92518
N    -0.92045   -2.45269    0.35585
N    -1.14913   -1.06543    2.31125
C     0.90262   -0.92021    0.97428
N     1.40461   -0.30036    2.18003
N     1.53410   -2.24100    0.93217
C    -0.90115   -0.36416   -1.48443
N    -1.29594    0.76576   -2.33428
N    -1.58391   -1.55329   -1.97228
C     0.66696   -0.60215   -1.54059
N     1.16728    0.09437   -2.73044
N     1.07230   -1.98761   -1.68338
C     1.29969   -0.01510   -0.23062
C     0.74609    1.43450   -0.00317
N     1.43094    2.12778    1.09387
N     0.85825    2.20331   -1.23373
C    -0.78571    1.36187    0.39195
N    -1.47917    2.48775   -0.21747
N    -1.07195    1.54401    1.79349
C     2.82319   -0.02424   -0.39726
S     3.79170   -0.03971    1.16171
C     5.43008    0.05859    0.35026
H    -5.56055    0.78279    0.19603
H    -5.42152   -0.64669    1.25586
H    -5.87556    0.92929    1.93874
H    -3.23759    0.44536   -0.79744
H    -3.24393   -1.05514    0.16112
H    -1.90077   -2.60604    0.17243
H    -0.56442   -3.18456    0.95778
H    -2.11615   -0.77171    2.35802
H    -1.07115   -1.98255    2.74479
H     1.06706   -0.78156    3.00615
H     1.22493    0.69190    2.24909
H     2.52677   -2.12368    0.77777
H     1.44743   -2.64467    1.85921
H    -1.44197    0.43223   -3.28346
H    -0.49741    1.40297   -2.37201
H    -1.31657   -1.71841   -2.93812
H    -2.58337   -1.39134   -1.96832
H     0.86019   -0.42552   -3.54499
H     2.17509    0.05336   -2.74021
H     0.82047   -2.51469   -0.85230
H     0.57640   -2.41026   -2.46227
H     1.22467    3.11884    1.03021
H     2.43552    1.99839    1.04691
H     1.82535    2.38076   -1.47369
H     0.36974    3.08355   -1.10311
H    -2.33938    2.62269    0.29671
H    -1.71727    2.27633   -1.17970
H    -0.66573    0.84504    2.39803
H    -0.81840    2.47479    2.09159
H     3.15738    0.85454   -0.95241
H     3.09976   -0.92621   -0.94780
H     5.55727   -0.78275   -0.32650
H     5.53090    0.99616   -0.19037
H     6.16819    0.01028    1.14218
