72
mol35-0
C    -6.53226   -0.05026    0.77015
S    -5.08386    0.66393   -0.04652
C    -3.84773   -0.52114    0.61402
Si    -2.05235   -0.23343    0.00408
Si    -1.67263    2.27686    0.13674
C    -2.05937    2.99627   -1.69020
Cl    -3.59087    2.43334   -2.37875
Cl    -1.99688    4.76164   -1.78226
Cl    -0.75914    2.30778   -2.70427
C    -2.98965    3.46278    1.19885
Cl    -3.65752    2.64070    2.61773
Cl    -2.11444    4.91814    1.74824
Cl    -4.38289    4.01320    0.23706
Si     1.12899    2.63447    0.13512
C     2.13780    3.54739   -1.40606
Cl     1.13288    4.74265   -2.24658
Cl     3.65581    4.36850   -0.99647
Cl     2.53826    2.25879   -2.55934
C     1.64069    4.00238    1.56435
Cl     1.44838    5.64539    0.88748
Cl     0.64932    3.96776    3.02370
Cl     3.33253    3.75097    2.06212
Si    -1.42952   -1.42737   -2.13146
C    -2.06178   -3.27413   -1.73166
Cl    -3.80473   -3.41385   -1.45088
Cl    -1.60330   -4.50320   -2.91983
Cl    -1.25920   -3.66368   -0.19501
C    -2.72491   -1.02649   -3.64276
Cl    -4.30979   -0.65850   -2.92296
Cl    -2.92890   -2.40569   -4.75038
Cl    -2.26327    0.35858   -4.63816
Si     1.03568   -1.33552   -2.28854
C     1.42840   -0.70400   -4.17154
Cl     3.18994   -0.64777   -4.42692
Cl     0.63514   -1.86521   -5.28674
Cl     0.82396    0.88308   -4.63861
C     2.15877   -3.12723   -2.47164
Cl     2.75158   -3.65143   -4.06910
Cl     1.27808   -4.52230   -1.83145
Cl     3.61406   -2.90486   -1.47218
Si     2.04936    0.22209   -0.07969
Si     1.65602   -0.96136    2.10592
C     2.80642   -0.04730    3.49112
Cl     2.11171    1.48405    4.03707
Cl     3.16211   -1.02101    4.93403
Cl     4.34803    0.34926    2.69405
C     2.44266   -2.76600    2.23386
Cl     1.70373   -3.63190    0.88432
Cl     4.19703   -2.81868    2.03227
Cl     1.99396   -3.62559    3.72531
Si    -0.73444   -1.41284    2.22384
C    -1.25602   -0.17452    3.71302
Cl    -2.96160   -0.19269    4.14193
Cl    -0.86196    1.45480    3.08299
Cl    -0.27998   -0.39549    5.17977
C    -1.61317   -3.15108    3.00796
Cl    -0.82377   -4.66782    2.55316
Cl    -3.28060   -3.20845    2.38147
Cl    -1.71670   -3.14779    4.78531
C     3.89831    0.05391   -0.59304
S     4.94919    1.51211   -0.23202
C     6.50992    0.79716   -0.80067
H    -6.39151   -0.02932    1.84694
H    -6.67674   -1.06800    0.41794
H    -7.38236    0.56335    0.49129
H    -3.88703   -0.41719    1.69742
H    -4.20260   -1.51483    0.34948
H     4.35901   -0.78103   -0.06779
H     3.98586   -0.11720   -1.66536
H     6.41679    0.52055   -1.84693
H     7.26801    1.56331   -0.68186
H     6.75477   -0.06897   -0.19218
