180
mol32-0
C    -2.76561    0.07710   -6.06513
S    -2.88033    0.22392   -4.26038
C    -1.11978    0.07556   -3.83630
Si    -0.74034    0.11530   -1.92529
Si    -2.18797   -1.35932   -0.65892
C    -2.33588   -3.14960   -1.37798
C    -2.50295   -3.32581   -2.89003
C    -2.07952   -4.73792   -3.30004
C    -3.93487   -3.07087   -3.34510
C    -3.84869   -0.38154   -0.67512
C    -5.03105   -0.81164    0.19347
C    -6.04460    0.32877    0.29991
C    -5.73303   -2.05126   -0.34999
Si    -1.14225   -1.58752    1.51257
C    -0.37141   -3.35853    1.63943
C     0.82461   -3.54535    2.57195
C     1.46193   -4.91653    2.33862
C     0.45437   -3.40632    4.04470
C    -2.38014   -1.39567    2.99425
C    -3.04208   -2.64038    3.59765
C    -3.93627   -3.38529    2.61036
C    -3.86168   -2.24214    4.82598
Si    -0.73109    2.42496   -1.15723
C    -2.03968    3.80234   -1.52397
C    -3.48215    3.53649   -1.08456
C    -4.16583    4.84301   -0.67805
C    -4.27783    2.87665   -2.20504
C     0.95751    3.11702   -1.83368
C     1.10188    4.10607   -2.99791
C     0.61898    5.51607   -2.65806
C     0.44589    3.60566   -4.28087
Si    -0.36667    2.25128    1.22449
C     0.48038    3.91014    1.76945
C     1.10830    4.00326    3.16888
C     0.89537    5.39441    3.76638
C     2.60129    3.69842    3.11640
C    -2.01391    2.07102    2.22986
C    -2.72544    3.31495    2.78527
C    -2.35741    3.54167    4.24967
C    -4.24463    3.17072    2.69432
Si     0.67172    0.07866    1.63627
Si     2.61031   -0.33342    0.16900
C     3.71956   -1.92480    0.38820
C     4.84634   -2.10628    1.41253
C     4.34451   -2.16172    2.85050
C     5.61238   -3.39456    1.10019
C     3.54810    1.36358    0.00633
C     5.01373    1.59171    0.39035
C     5.26122    1.34369    1.87960
C     5.96183    0.79495   -0.50377
Si     1.52670   -0.75610   -1.93565
C     2.35452   -0.16543   -3.59191
C     3.88550    0.01280   -3.62947
C     4.24971    1.46241   -3.94884
C     4.53520   -0.90171   -4.66725
C     1.30267   -2.67207   -2.07026
C     2.43554   -3.51516   -2.67593
C     2.63870   -4.81018   -1.88950
C     2.14196   -3.86117   -4.13454
C     1.40194    0.09463    3.44178
S     0.20570    0.62494    4.70506
C     1.29799    0.59831    6.15217
H    -2.33780   -0.88867   -6.32267
H    -3.77431    0.15449   -6.45725
H    -2.14939    0.88265   -6.45648
H    -0.77347   -0.86057   -4.27203
H    -0.60887    0.88902   -4.34622
H    -1.40378   -3.64137   -1.09706
H    -3.12520   -3.71781   -0.88066
H    -1.84833   -2.61311   -3.39988
H    -2.69896   -5.47962   -2.79858
H    -1.04119   -4.92501   -3.03199
H    -2.18508   -4.87604   -4.37465
H    -4.24378   -2.06232   -3.09191
H    -4.01505   -3.18957   -4.42398
H    -4.61575   -3.77800   -2.87554
H    -4.19651   -0.27280   -1.70328
H    -3.56175    0.62301   -0.35873
H    -4.66135   -1.02795    1.19872
H    -5.58953    1.21018    0.74491
H    -6.89160    0.03493    0.91713
H    -6.41708    0.59448   -0.68751
H    -6.13479   -1.85190   -1.34103
H    -6.55953   -2.33454    0.29969
H    -5.04987   -2.89095   -0.41672
H    -1.12922   -4.09880    1.89751
H    -0.03259   -3.61669    0.63512
H     1.55974   -2.77261    2.32360
H     1.79953   -5.01770    1.30891
H     2.31659   -5.06828    2.99628
H     0.74030   -5.70702    2.53659
H    -0.02345   -2.45102    4.23883
H    -0.22482   -4.20261    4.34269
H     1.34498   -3.48178    4.66757
H    -3.16157   -0.69778    2.69192
H    -1.84509   -0.89347    3.80310
H    -2.25653   -3.32418    3.92716
H    -3.41736   -3.56590    1.67226
H    -4.83711   -2.81457    2.40141
H    -4.23867   -4.34407    3.03010
H    -4.63905   -1.53251    4.54792
H    -3.22886   -1.77639    5.57816
H    -4.33842   -3.11410    5.26993
H    -1.68668    4.69643   -1.00040
H    -2.06442    4.05839   -2.58517
H    -3.47443    2.86928   -0.21852
H    -3.66042    5.30016    0.16969
H    -4.15686    5.54814   -1.50718
H    -5.20215    4.66319   -0.39868
H    -5.26268    2.57955   -1.85274
H    -3.76376    1.99706   -2.57883
H    -4.41210    3.57301   -3.03018
H     1.52957    2.22765   -2.09923
H     1.49146    3.55519   -0.99087
H     2.18002    4.18535   -3.19852
H    -0.46031    5.59943   -2.74164
H     1.06355    6.23801   -3.34331
H     0.91158    5.78678   -1.64521
H     0.55722    4.34443   -5.07308
H     0.91814    2.68273   -4.61258
H    -0.61409    3.41581   -4.13076
H    -0.27670    4.69476    1.68063
H     1.24751    4.16865    1.03671
H     0.64040    3.26607    3.82734
H    -0.16443    5.62243    3.85215
H     1.33767    5.45900    4.75932
H     1.36082    6.15099    3.13628
H     3.02841    3.69873    4.11862
H     2.77156    2.72652    2.66291
H     3.12422    4.44987    2.52643
H    -2.69975    1.53445    1.57272
H    -1.83058    1.39914    3.06592
H    -2.43766    4.19930    2.20684
H    -2.75337    2.73111    4.85916
H    -1.28302    3.56583    4.38858
H    -2.77717    4.47898    4.61243
H    -4.56842    2.27742    3.22510
H    -4.73544    4.03213    3.14434
H    -4.57294    3.09923    1.66123
H     3.00310   -2.73449    0.54055
H     4.16106   -2.11430   -0.59542
H     5.55152   -1.27760    1.32950
H     5.18720   -2.21239    3.53856
H     3.72776   -3.04316    3.00537
H     3.75673   -1.28147    3.09307
H     4.94863   -4.25569    1.15539
H     6.42040   -3.54059    1.81445
H     6.04425   -3.35919    0.10224
H     2.94408    2.07402    0.57116
H     3.44466    1.66588   -1.03403
H     5.23238    2.65139    0.20008
H     4.65361    0.51989    2.24240
H     5.00791    2.22958    2.45919
H     6.30906    1.11410    2.06849
H     6.99335    0.93473   -0.18557
H     5.73391   -0.26553   -0.48480
H     5.87811    1.14271   -1.53037
H     2.06025   -0.83832   -4.39852
H     1.89733    0.79194   -3.84202
H     4.30545   -0.23615   -2.65018
H     5.33027    1.59420   -3.97034
H     3.83620    2.14254   -3.20735
H     3.85767    1.74346   -4.92488
H     4.31894   -1.94559   -4.45906
H     4.16711   -0.66605   -5.66442
H     5.61594   -0.77069   -4.66612
H     0.38668   -2.89250   -2.61447
H     1.12115   -3.00844   -1.04974
H     3.37279   -2.95065   -2.63685
H     2.93389   -4.59654   -0.86523
H     1.71775   -5.39038   -1.86970
H     3.41637   -5.42014   -2.34577
H     1.25683   -4.49178   -4.20044
H     2.97651   -4.40284   -4.57723
H     1.96371   -2.96593   -4.72403
H     2.24301    0.78224    3.51414
H     1.74023   -0.89199    3.74784
H     1.67611   -0.40987    6.30254
H     2.11968    1.29321    5.99681
H     0.70543    0.90647    7.00696
