72
mol34-0
C     6.54830    0.95653   -0.04797
S     4.86253    1.29951    0.51314
C     4.00847    0.03106   -0.53143
Si     2.11938    0.06238   -0.24916
Si     0.98066    2.18887   -0.79106
C     1.88423    3.69456    0.14523
F     1.13741    4.80284    0.16958
F     2.12643    3.34540    1.42092
F     3.05976    4.01044   -0.40724
C     1.33308    2.70594   -2.67581
F     2.54853    2.29819   -3.07280
F     0.42744    2.10124   -3.46669
F     1.25335    4.01552   -2.90733
Si    -1.39770    2.09058   -0.39544
C    -2.48405    2.72807   -1.93223
F    -3.76817    2.91773   -1.60041
F    -2.47724    1.77346   -2.88469
F    -2.03193    3.85008   -2.49113
C    -1.82077    3.48811    0.95633
F    -0.85297    3.45787    1.89341
F    -1.82190    4.71626    0.42888
F    -2.98842    3.31671    1.57340
Si     1.16491   -1.68557   -1.69445
C     1.85129   -3.49107   -1.24585
F     3.10725   -3.43022   -0.77552
F     1.08022   -4.01709   -0.27909
F     1.85031   -4.34863   -2.26639
C     1.96724   -1.45840   -3.49653
F     1.39444   -2.18999   -4.45020
F     3.28058   -1.74139   -3.48916
F     1.86443   -0.16799   -3.86102
Si    -1.20106   -1.69105   -1.66352
C    -1.90201   -1.24506   -3.46406
F    -1.12634   -0.28958   -4.00376
F    -1.92119   -2.27028   -4.31582
F    -3.15213   -0.76091   -3.39241
C    -2.02015   -3.48310   -1.41761
F    -1.90736   -3.84154   -0.12633
F    -3.33630   -3.46315   -1.68656
F    -1.46550   -4.44692   -2.14990
Si    -2.12112   -0.22599    0.08642
Si    -0.96546   -0.76832    2.20365
C    -1.84272    0.18589    3.71364
F    -2.07500    1.46218    3.35995
F    -3.02062   -0.35216    4.04517
F    -1.08380    0.20829    4.81372
C    -1.33244   -2.64630    2.73506
F    -1.24110   -2.87145    4.04499
F    -0.44186   -3.45019    2.12516
F    -2.55638   -3.03245    2.34258
Si     1.41580   -0.39885    2.07771
C     2.49243   -1.94371    2.71218
F     2.04642   -2.49154    3.84207
F     2.46518   -2.90128    1.76304
F     3.78199   -1.62469    2.88626
C     1.86833    0.95596    3.46303
F     1.87702    0.43527    4.69403
F     3.04060    1.55948    3.27569
F     0.91034    1.90321    3.43789
C    -4.01334   -0.48812    0.07693
S    -4.84248    0.57260    1.34850
C    -6.53772    0.02761    1.02691
H     7.19327    1.65353    0.47765
H     6.61770    1.12396   -1.11903
H     6.81821   -0.06388    0.20834
H     4.25396    0.24743   -1.57554
H     4.42709   -0.94737   -0.27560
H    -4.43971   -0.23326   -0.89840
H    -4.26764   -1.52831    0.30186
H    -6.81590    0.28101    0.00800
H    -7.16950    0.56403    1.72775
H    -6.61669   -1.04169    1.20125
