36
mol48-0
C    -6.40972    0.19635    0.58624
S    -4.75593    0.87489    0.31885
C    -3.79496   -0.68858    0.44397
Si    -1.93891   -0.32164    0.16159
Si    -1.52623    0.40178   -2.09413
Br    -1.86072   -1.41645   -3.39565
Br    -2.87454    1.97739   -2.92678
Si     0.78139    0.96850   -2.23446
Br     1.80772    0.34034   -4.11915
Br     0.97237    3.22015   -2.17183
Si    -1.17082    1.39142    1.67066
Br    -1.78604    3.40694    0.87007
Br    -2.13904    1.19742    3.67474
Si     1.22122    1.33938    1.67729
Br     1.85239    0.18865    3.51011
Br     2.22260    3.33148    1.81938
Si     1.93560    0.14241   -0.28707
Si     1.49306   -2.19865    0.03785
Br     2.84987   -3.31499    1.41867
Br     1.77617   -3.16630   -1.98584
Si    -0.80784   -2.40100    0.61309
Br    -0.96335   -2.73108    2.84404
Br    -1.87766   -4.13060   -0.31642
C     3.79068    0.45643   -0.63259
S     4.77290    0.04463    0.86714
C     6.42076    0.40157    0.21593
H    -6.63480   -0.52628   -0.19420
H    -7.10146    1.03166    0.53209
H    -6.45652   -0.26538    1.56935
H    -4.18914   -1.38396   -0.30010
H    -3.97389   -1.10775    1.43635
H     3.98121    1.50406   -0.87485
H     4.16064   -0.16018   -1.45448
H     7.12403    0.19133    1.01617
H     6.47839    1.44955   -0.06744
H     6.62059   -0.24350   -0.63607
