156
mol55-0
C    -1.58056   -0.86248    6.14771
S    -1.83396   -0.62546    4.36980
C    -0.06680   -0.63870    3.85624
Si     0.11292   -0.20636    1.98854
Si    -1.41010    1.79451    1.62725
C    -1.26177    3.39784    2.71797
C    -1.52985    4.66341    2.21266
F    -2.04605    4.79087    0.97800
C    -1.30552    5.83525    2.92462
F    -1.55409    7.01426    2.34908
C    -0.81802    5.76979    4.22526
F    -0.59344    6.87893    4.91839
C    -0.58712    4.51758    4.78699
F    -0.14949    4.41380    6.03992
C    -0.81387    3.37061    4.03410
F    -0.60041    2.19716    4.62785
C    -3.21008    1.23310    1.99685
C    -4.03004    1.65410    3.03413
F    -3.52551    2.39002    4.02641
C    -5.38457    1.33602    3.08575
F    -6.12760    1.74117    4.11325
C    -5.96960    0.61663    2.04753
F    -7.26934    0.34928    2.06269
C    -5.17102    0.18178    0.98984
F    -5.71209   -0.46816   -0.04367
C    -3.81631    0.46196    1.02061
F    -3.01637    0.00592    0.01871
Si    -1.30198    2.39253   -0.83755
C    -2.99449    2.83335   -1.66247
C    -4.14520    3.13420   -0.95205
F    -4.09980    3.22922    0.38781
C    -5.37610    3.35584   -1.55925
F    -6.44481    3.61668   -0.80454
C    -5.48445    3.29990   -2.94395
F    -6.65028    3.51299   -3.53940
C    -4.34330    3.02570   -3.69319
F    -4.40709    2.97068   -5.02248
C    -3.13771    2.80084   -3.04407
F    -2.06210    2.53447   -3.78912
C    -0.35265    4.06913   -0.94271
C     0.72161    4.20972   -0.08227
F     1.07380    3.12455    0.65792
C     1.47636    5.36033    0.03596
F     2.51665    5.39486    0.88086
C     1.14514    6.46980   -0.73718
F     1.84501    7.59168   -0.63826
C     0.06939    6.37448   -1.61465
F    -0.26760    7.41924   -2.36496
C    -0.65573    5.18750   -1.70665
F    -1.67788    5.15553   -2.56303
Si     2.50863    0.13560    1.17682
C     3.34737    1.76515    1.81164
C     2.72939    2.57964    2.74160
F     1.51023    2.22846    3.17672
C     3.29637    3.74628    3.23405
F     2.61674    4.50533    4.09394
C     4.56672    4.11988    2.80403
F     5.13921    5.22337    3.26469
C     5.23002    3.31552    1.88055
F     6.44636    3.64905    1.45190
C     4.61128    2.16490    1.40533
F     5.26814    1.40208    0.51627
C     3.80730   -1.00623    2.04413
C     3.76509   -1.14425    3.42510
F     2.88449   -0.39483    4.10673
C     4.58664   -2.01495    4.12545
F     4.49360   -2.11196    5.45121
C     5.51187   -2.78896    3.42801
F     6.30582   -3.63066    4.07699
C     5.60595   -2.65246    2.04627
F     6.49644   -3.36452    1.35930
C     4.76345   -1.76380    1.38687
F     4.89774   -1.63143    0.06113
Si     2.37974    0.14124   -1.24515
C     2.86114   -1.52324   -2.08423
C     2.88135   -2.67558   -1.32432
F     2.30717   -2.61921   -0.10101
C     3.45939   -3.86537   -1.73765
F     3.49239   -4.91669   -0.91957
C     3.99253   -3.94085   -3.02293
F     4.54776   -5.06281   -3.46116
C     3.90753   -2.82722   -3.85649
F     4.35579   -2.89593   -5.10917
C     3.35724   -1.64545   -3.37359
F     3.29819   -0.58988   -4.19738
C     3.73962    1.28821   -1.98917
C     3.39841    2.62265   -2.12693
F     2.15198    2.97985   -1.76228
C     4.25244    3.60267   -2.60233
F     3.83863    4.86936   -2.68364
C     5.54263    3.24126   -2.98136
F     6.39015    4.15076   -3.44712
C     5.93006    1.90886   -2.86174
F     7.15937    1.54371   -3.21791
C     5.03880    0.95966   -2.36771
F     5.47099   -0.29769   -2.26298
Si     0.02359    0.45887   -1.98138
Si    -1.07496   -1.97461   -1.58941
C    -2.85426   -2.17684   -2.31054
C    -3.45879   -3.41487   -2.48553
F    -2.75476   -4.51679   -2.19107
C    -4.75803   -3.55400   -2.95882
F    -5.29179   -4.76289   -3.12202
C    -5.50300   -2.41678   -3.26619
F    -6.74689   -2.53300   -3.71463
C    -4.91883   -1.16280   -3.11425
F    -5.59531   -0.05041   -3.41161
C    -3.61334   -1.07572   -2.65510
F    -3.04672    0.14197   -2.56566
C    -0.29270   -3.17231   -2.92167
C    -0.53418   -2.97735   -4.27751
F    -1.25227   -1.90704   -4.65569
C    -0.06972   -3.83725   -5.26451
F    -0.32567   -3.58788   -6.54749
C     0.66746   -4.96339   -4.90312
F     1.12131   -5.79622   -5.83041
C     0.92326   -5.19621   -3.55489
F     1.63063   -6.25780   -3.17646
C     0.44144   -4.30186   -2.60612
F     0.70842   -4.55188   -1.31411
Si    -0.96512   -2.43425    0.86737
C     0.00059   -4.04288    1.32719
C    -0.51273   -5.29753    1.02443
F    -1.70470   -5.35697    0.41375
C     0.15630   -6.47621    1.32615
F    -0.38015   -7.65661    1.02189
C     1.39833   -6.41370    1.95629
F     2.05796   -7.52851    2.24611
C     1.92668   -5.17111    2.29459
F     3.10617   -5.07270    2.91575
C     1.21210   -4.02261    1.98912
F     1.71401   -2.83622    2.38622
C    -2.52500   -2.93847    1.92011
C    -3.81927   -2.83267    1.44028
F    -3.99778   -2.43850    0.16907
C    -4.94845   -3.12386    2.19547
F    -6.16510   -2.97059    1.67307
C    -4.79522   -3.56500    3.50628
F    -5.85677   -3.83762    4.25670
C    -3.51039   -3.71994    4.01662
F    -3.33411   -4.14905    5.26669
C    -2.41053   -3.40440    3.22783
F    -1.19442   -3.59141    3.76104
C     0.19652    0.61630   -3.89570
S     1.08645    2.14634   -4.40003
C     0.87274    1.98574   -6.18876
H    -1.01119   -0.02428    6.53878
H    -2.56271   -0.89623    6.61033
H    -1.05793   -1.80162    6.31078
H     0.32369   -1.62629    4.08921
H     0.44077    0.08743    4.48684
H    -0.77058    0.63898   -4.39101
H     0.76871   -0.21776   -4.30159
H    -0.18676    2.00054   -6.42729
H     1.36766    2.83893   -6.64186
H     1.33772    1.06402   -6.52793
