84
mol52-0
C    -6.12979   -2.68048    0.30827
S    -4.30614   -2.73471    0.33316
C    -3.99463   -0.94907    0.07972
Si    -2.09770   -0.50267    0.00387
Si    -1.78962    1.59950   -1.00235
O    -2.90819    1.56764   -2.20734
C    -2.95017    2.30040   -3.40453
O    -2.04429    2.84979    0.03292
C    -3.16745    3.03454    0.84977
Si     0.39827    1.97602   -1.59306
O     0.28765    1.30355   -3.08892
C     1.33304    1.16545   -4.00668
O     0.99281    3.47082   -1.94729
C     1.75824    4.36355   -1.19359
Si    -0.79541   -2.08137   -1.15725
O    -1.10193   -3.40730   -0.26074
C    -0.58957   -4.70881   -0.31874
O    -1.36911   -2.42800   -2.64825
C    -1.55919   -1.50990   -3.68217
Si     1.48074   -1.59837   -1.07403
O     2.30058   -2.69977   -0.17599
C     2.27772   -2.86526    1.21208
O     2.10284   -1.81415   -2.56979
C     3.43453   -1.78589   -3.00167
Si     1.78873    0.62032   -0.22325
Si     0.93252    0.67122    1.97707
O     0.51729    2.18751    2.48754
C     1.31157    3.33364    2.56793
O     2.19901    0.09471    2.84683
C     2.23314   -0.43674    4.14705
Si    -1.13576   -0.31533    2.13597
O    -2.28926    0.43673    3.03427
C    -2.18329    1.28637    4.14680
O    -0.70803   -1.75361    2.81052
C    -1.51594   -2.89196    2.94113
C     3.64657    1.25166   -0.35754
S     4.82559    0.04872    0.35416
C     6.38016    0.91720   -0.03413
H    -6.46832   -2.20986   -0.61075
H    -6.47899   -3.70668    0.34774
H    -6.49447   -2.13109    1.17214
H    -4.48891   -0.67467   -0.85331
H    -4.48916   -0.42669    0.90076
H    -3.72246    1.86547   -4.04073
H    -3.18907    3.34790   -3.21120
H    -1.98478    2.24279   -3.90867
H    -3.11483    4.03303    1.28559
H    -3.17116    2.28528    1.64073
H    -4.08842    2.94159    0.27096
H     1.73939    2.14291   -4.27206
H     0.94645    0.68010   -4.90305
H     2.12710    0.55386   -3.57820
H     1.47377    5.38300   -1.46178
H     1.60294    4.21702   -0.12465
H     2.81694    4.21833   -1.42341
H    -0.85238   -5.21341    0.61181
H    -1.02638   -5.25257   -1.15798
H     0.49531   -4.69170   -0.43159
H    -1.81633   -2.06374   -4.58618
H    -0.65465   -0.92581   -3.85123
H    -2.36845   -0.82201   -3.42863
H     2.75194   -3.81985    1.44349
H     1.25316   -2.86207    1.58864
H     2.83301   -2.05689    1.68859
H     3.43951   -1.61648   -4.08018
H     3.92338   -2.73548   -2.78165
H     3.99022   -0.98994   -2.50340
H     2.20565    3.23559    1.94933
H     0.72493    4.19004    2.22883
H     1.62382    3.50269    3.60180
H     1.54401   -1.27921    4.22390
H     1.95548    0.31995    4.88581
H     3.25187   -0.77553    4.34436
H    -3.17534    1.68946    4.35951
H    -1.82157    0.74236    5.02270
H    -1.49520    2.10324    3.92485
H    -2.43245   -2.65973    3.48391
H    -0.95256   -3.64879    3.48886
H    -1.78330   -3.26726    1.95305
H     3.80262    2.19079    0.17679
H     3.94472    1.40261   -1.39780
H     7.18854    0.31431    0.36547
H     6.48851    1.01409   -1.11161
H     6.38070    1.89689    0.43680
