60
mol65-0
C     6.52036   -0.77475   -0.04857
S     4.77849   -1.10289    0.34846
C     4.02737    0.30606   -0.49106
Ge     2.05834    0.14366   -0.22280
Ge     0.95921    2.16107   -1.15383
C     1.76446    2.61416   -2.83048
C     2.24020    2.80153   -3.91962
C     1.35278    3.62004    0.02530
C     1.55432    4.47064    0.85242
Ge    -1.47876    1.82213   -1.29379
C    -1.90069    1.28345   -3.07779
C    -2.08983    0.84410   -4.18258
C    -2.43825    3.43442   -0.92788
C    -3.01232    4.44003   -0.60071
Ge     1.53517   -0.01806    2.19625
C     2.58243    1.19171    3.24204
C     3.21284    2.02689    3.83626
C     1.88446   -1.78812    2.82540
C     2.02579   -2.94376    3.13132
Ge    -0.87836    0.41849    2.44441
C    -1.16923    2.25413    2.91320
C    -1.30759    3.43460    3.10206
C    -1.70238   -0.61080    3.83240
C    -2.19357   -1.34613    4.64828
Ge    -2.05345    0.01077    0.30014
Ge    -1.24074   -2.13858   -0.65303
C    -2.35315   -2.80759   -2.05327
C    -3.03816   -3.12790   -2.98877
C    -1.30103   -3.42452    0.76706
C    -1.26622   -4.16599    1.71443
Ge     1.11567   -1.86404   -1.34946
C     1.14626   -1.50115   -3.23127
C     1.10026   -1.18454   -4.39151
C     2.15782   -3.43961   -1.07175
C     2.80222   -4.41370   -0.78385
C    -4.01802   -0.00832    0.64005
S    -4.81729   -0.14262   -0.97156
C    -6.55000   -0.17680   -0.42756
H     6.64530   -0.77249   -1.12851
H     7.10830   -1.57090    0.39506
H     6.80785    0.18488    0.37352
H     4.27987    0.27645   -1.55077
H     4.39907    1.23106   -0.04973
H     2.66334    2.97021   -4.86970
H     1.73181    5.22169    1.56927
H    -2.28726    0.45549   -5.14044
H    -3.51455    5.32261   -0.32049
H     3.76754    2.75284    4.36067
H     2.17758   -3.95185    3.39200
H    -1.42896    4.46611    3.27705
H    -2.63268   -1.98332    5.36333
H    -3.65328   -3.41059   -3.79536
H    -1.24224   -4.81970    2.53989
H     1.06230   -0.91588   -5.40914
H     3.38283   -5.25806   -0.54133
H    -4.33199    0.91663    1.12423
H    -4.29807   -0.86084    1.25844
H    -6.77861    0.74929    0.09381
H    -7.16564   -0.26902   -1.31572
H    -6.70167   -1.03281    0.22523
