180
mol60-0
C    -1.51617   -3.77060   -5.01183
S    -1.37850   -3.32461   -3.25819
C    -0.74479   -1.64634   -3.42466
Ge    -0.38717   -0.78902   -1.61409
Ge     2.05543   -1.17350   -1.00687
C     2.32138   -3.02695   -0.21962
C     2.74774   -4.19020   -1.10392
C     1.79225   -4.40075   -2.26903
C     2.83460   -5.46791   -0.26681
C     3.16769   -0.72927   -2.65642
C     4.23744   -1.69521   -3.14758
C     5.37701   -1.84958   -2.14742
C     4.79424   -1.20748   -4.48728
Ge     2.50144    0.41639    0.88626
C     3.31431    2.16488    0.24647
C     4.81746    2.36971    0.38472
C     5.20038    3.80213    0.00992
C     5.59320    1.38633   -0.47992
C     3.75298   -0.47273    2.20645
C     4.22492    0.38086    3.38717
C     5.73126    0.22467    3.59570
C     3.48723    0.00183    4.66729
Ge    -1.92912   -1.83792    0.11377
C    -1.48682   -3.82601    0.16082
C    -2.52835   -4.88001   -0.18329
C    -1.83620   -6.22834   -0.39300
C    -3.59294   -5.00893    0.89828
C    -3.85956   -1.26650   -0.14092
C    -4.43939   -1.21625   -1.54841
C    -4.76911   -2.60383   -2.08117
C    -5.70236   -0.35310   -1.55382
Ge    -1.18001   -0.83593    2.31852
C    -2.54424   -0.33045    3.73340
C    -3.93353   -0.93722    3.61704
C    -4.83438   -0.40093    4.73038
C    -3.87964   -2.45664    3.67935
C     0.24602   -2.01514    3.11964
C    -0.17824   -3.30192    3.82745
C     0.85391   -4.40732    3.60227
C    -0.35358   -3.06728    5.32430
Ge     0.28231    1.14656    1.77967
Ge    -0.69477    2.79497    0.18098
C     0.17422    4.63045    0.29312
C     1.02304    5.06220   -0.89625
C     2.05129    6.11032   -0.47148
C     0.13559    5.63029   -1.99716
C    -2.61293    2.97119    0.78743
C    -2.85259    3.29554    2.25758
C    -4.31608    3.03196    2.61396
C    -2.50103    4.74006    2.59423
Ge    -0.81172    1.67070   -2.05502
C     0.60472    2.30425   -3.36372
C     0.77916    1.49871   -4.64397
C    -0.37130    1.70199   -5.62050
C     2.09858    1.87383   -5.31985
C    -2.72673    1.92555   -2.66562
C    -3.21506    3.36283   -2.81620
C    -4.73317    3.42235   -2.64437
C    -2.82688    3.96020   -4.16293
C     0.72098    2.29770    3.39228
S     0.12200    1.50889    4.89707
C     0.70199    2.71692    6.12149
H    -1.91992   -4.77630   -5.05712
H    -2.18603   -3.07478   -5.51029
H    -0.53020   -3.74348   -5.46896
H    -1.48140   -1.06598   -3.97939
H     0.17269   -1.70546   -4.00945
H     1.37347   -3.27727    0.25946
H     3.05936   -2.90970    0.57737
H     3.74434   -3.98243   -1.50225
H     2.17431   -5.16301   -2.94621
H     0.81627   -4.72072   -1.91355
H     1.66003   -3.47283   -2.82428
H     1.85725   -5.72052    0.13993
H     3.52997   -5.34175    0.56022
H     3.17592   -6.30124   -0.87730
H     3.62217    0.24439   -2.46963
H     2.44432   -0.59090   -3.46100
H     3.77727   -2.67317   -3.31272
H     4.98663   -2.05999   -1.15272
H     5.96638   -0.93753   -2.10150
H     6.03582   -2.66434   -2.44359
H     4.00703   -1.14689   -5.23542
H     5.56221   -1.88664   -4.85119
H     5.23706   -0.21930   -4.37641
H     3.02972    2.29689   -0.79963
H     2.80086    2.94928    0.80783
H     5.09958    2.20580    1.42878
H     4.88808    4.02460   -1.00862
H     4.72541    4.51736    0.67737
H     6.27794    3.93904    0.07663
H     5.27558    0.36958   -0.26189
H     6.66271    1.46806   -0.29175
H     5.41653    1.58935   -1.53463
H     3.26445   -1.37186    2.58086
H     4.61721   -0.80648    1.62907
H     4.01946    1.43854    3.18114
H     5.97435   -0.81376    3.81268
H     6.27930    0.52698    2.70583
H     6.06953    0.83645    4.43020
H     3.81350    0.62790    5.49679
H     2.41348    0.12490    4.54449
H     3.68931   -1.03565    4.92667
H    -0.67495   -3.91851   -0.55857
H    -1.07718   -4.03880    1.14829
H    -3.01022   -4.60744   -1.12407
H    -2.56826   -7.00069   -0.61929
H    -1.13539   -6.17122   -1.22222
H    -1.29283   -6.52259    0.50338
H    -4.09668   -4.05867    1.05203
H    -3.14342   -5.32104    1.83865
H    -4.33625   -5.75040    0.61286
H    -4.49581   -1.88413    0.49311
H    -3.87841   -0.25640    0.27683
H    -3.69748   -0.76114   -2.21617
H    -5.29598   -2.53091   -3.03107
H    -5.40132   -3.14391   -1.37942
H    -3.85492   -3.16800   -2.24165
H    -5.49822    0.64656   -1.17800
H    -6.10080   -0.26237   -2.56237
H    -6.46686   -0.80496   -0.92396
H    -2.10272   -0.59454    4.69193
H    -2.62787    0.75359    3.72012
H    -4.36438   -0.64464    2.65333
H    -5.84072   -0.80464    4.63619
H    -4.89363    0.68369    4.69157
H    -4.43975   -0.68679    5.70328
H    -4.87306   -2.88542    3.55943
H    -3.23717   -2.83504    2.88509
H    -3.47849   -2.78235    4.63611
H     0.82403   -1.40070    3.80922
H     0.90856   -2.25990    2.28638
H    -1.13716   -3.64395    3.42152
H     0.95425   -4.63734    2.54389
H     0.56176   -5.31702    4.12395
H     1.82641   -4.09497    3.97815
H     0.60420   -2.82841    5.78167
H    -0.75338   -3.95656    5.80875
H    -1.03072   -2.23799    5.50793
H     0.79344    4.61148    1.19168
H    -0.60959    5.36963    0.45277
H     1.55930    4.19202   -1.28838
H     2.71069    5.71423    0.29638
H     2.66027    6.41607   -1.31995
H     1.55030    6.99127   -0.07308
H     0.71710    5.84253   -2.89246
H    -0.32721    6.55783   -1.66525
H    -0.65389    4.92301   -2.24549
H    -3.06257    1.99625    0.58162
H    -3.13915    3.70401    0.17472
H    -2.22113    2.63671    2.86780
H    -4.58467    1.99864    2.40706
H    -4.96698    3.68026    2.02954
H    -4.49717    3.22949    3.66909
H    -2.76178    4.96258    3.62769
H    -1.43701    4.91698    2.46439
H    -3.04914    5.42470    1.94889
H     0.44333    3.35115   -3.61293
H     1.53804    2.24816   -2.79956
H     0.81275    0.43641   -4.37616
H    -0.41116    2.73658   -5.95343
H    -1.31786    1.45112   -5.15003
H    -0.24084    1.06880   -6.49609
H     2.23532    1.30596   -6.23790
H     2.10325    2.93306   -5.56990
H     2.94110    1.67183   -4.66370
H    -3.30809    1.45220   -1.87438
H    -2.93114    1.36995   -3.58129
H    -2.75667    3.97086   -2.02587
H    -5.22003    2.77723   -3.37292
H    -5.09698    4.43761   -2.78810
H    -5.02183    3.09432   -1.64855
H    -3.30209    3.41022   -4.97236
H    -3.14520    4.99921   -4.22368
H    -1.75042    3.92000   -4.30218
H     0.23877    3.27117    3.31543
H     1.79585    2.43808    3.49099
H     1.78651    2.78063    6.08075
H     0.38483    2.36628    7.09778
H     0.25684    3.68575    5.90874
