84
mol8-0
C     4.93125   -1.83433    1.44515
S     3.52881   -0.78856    1.93879
C     2.52693   -1.08020    0.41823
C     1.12652   -0.48421    0.20728
C     0.26074   -0.59412    1.53350
C     0.07791   -2.04841    1.91857
C     0.94105   -2.81997    2.55978
C     0.98112    0.08088    2.68776
C     0.92918   -0.24818    3.96739
C    -1.14888    0.11268    1.30265
C    -2.35760   -0.67469    1.79245
C    -2.48442   -1.25295    2.97622
C    -1.26299    1.33208    2.21712
C    -2.36283    1.86996    2.72216
C     1.24260    1.01677   -0.31253
C     2.17776    1.84452    0.54613
C     2.33726    3.15803    0.56819
C     1.97480    0.96439   -1.64372
C     3.23975    1.27303   -1.87701
C    -0.20076    1.63672   -0.54502
C    -0.48233    2.85289    0.32544
C    -1.33162    3.83182    0.05234
C    -0.33986    2.23952   -1.93816
C     0.48662    3.10307   -2.50252
C    -1.27296    0.50284   -0.23101
C    -1.00875   -0.73587   -1.18721
C    -2.06388   -1.80998   -0.97170
C    -2.56193   -2.59413   -1.91381
C    -1.31630   -0.27084   -2.60591
C    -0.65773   -0.13435   -3.74606
C     0.42221   -1.37911   -0.90250
C     1.08851   -1.71990   -2.22486
C     2.33263   -1.77807   -2.67094
C     0.29401   -2.84843   -0.45467
C     1.18838   -3.81625   -0.60603
C    -2.66398    1.13224   -0.46045
S    -4.12969    0.08991   -0.86767
C    -5.35593    1.42972   -0.83484
H     5.37965   -1.45022    0.53239
H     4.59356   -2.85824    1.30357
H     5.64725   -1.78674    2.25931
H     3.17510   -0.72638   -0.37898
H     2.45239   -2.16280    0.38088
H    -0.89432   -2.46628    1.72555
H     0.67747   -3.83784    2.80100
H     1.92523   -2.50772    2.86062
H     1.56450    0.94708    2.42399
H     1.48123    0.31862    4.69815
H     0.37910   -1.08897    4.35356
H    -3.24311   -0.60359    1.18023
H    -1.68012   -1.32226    3.68842
H    -3.41959   -1.69359    3.28053
H    -0.33847    1.72892    2.59299
H    -2.28500    2.70525    3.39947
H    -3.36900    1.54586    2.51877
H     2.92427    1.26808    1.07137
H     3.12854    3.59555    1.15651
H     1.71828    3.86045    0.03665
H     1.37716    0.63120   -2.46864
H     3.64298    1.18499   -2.87364
H     3.92731    1.63719   -1.13217
H     0.11627    2.97142    1.20957
H    -1.43964    4.65906    0.73476
H    -1.95602    3.88314   -0.82327
H    -1.24992    2.03025   -2.47334
H     0.25818    3.53344   -3.46299
H     1.42027    3.40691   -2.06761
H    -2.38415   -1.96373    0.04431
H    -2.28263   -2.52312   -2.95119
H    -3.28349   -3.35555   -1.67077
H    -2.37929   -0.06562   -2.67468
H    -1.19887    0.19451   -4.62012
H     0.39318   -0.30405   -3.91673
H     0.34646   -2.20218   -2.84941
H     2.52633   -2.21986   -3.63569
H     3.19830   -1.38394   -2.17424
H    -0.66979   -3.17036   -0.11010
H     2.17440   -3.68973   -1.02469
H     0.95307   -4.81929   -0.28834
H    -2.94454    1.67602    0.43775
H    -2.63370    1.84054   -1.28044
H    -5.15152    2.14295   -1.62919
H    -5.34318    1.92389    0.13368
H    -6.31953    0.95760   -1.00014
