156
mol83-0
C     2.50897   -1.16532   -6.33308
S     1.25903   -1.07919   -5.01959
C     2.35803   -0.69977   -3.62916
Ge     1.47818   -0.95824   -1.81380
Ge    -0.38165    1.47931   -2.32238
C    -1.94150    1.97285   -3.54057
C    -2.21689    1.11350   -4.58430
F    -1.48822   -0.02136   -4.62642
C    -3.20254    1.35266   -5.53055
F    -3.43735    0.47905   -6.50855
C    -3.95165    2.52412   -5.43108
F    -4.89823    2.78964   -6.32301
C    -3.70965    3.41022   -4.38189
F    -4.43359    4.52067   -4.26411
C    -2.71315    3.11641   -3.46112
F    -2.52737    3.93022   -2.39807
C     0.38551    3.35916   -2.70775
C     0.25333    4.58563   -2.08947
F    -0.43100    4.65339   -0.92985
C     0.80097    5.75338   -2.61268
F     0.62540    6.91363   -1.98962
C     1.54293    5.69315   -3.79106
F     2.09206    6.79217   -4.29514
C     1.70253    4.46844   -4.44161
F     2.41424    4.38637   -5.56599
C     1.10366    3.35029   -3.88687
F     1.19028    2.13766   -4.49031
Ge    -1.90136    2.39001   -0.06228
C    -1.54790    3.82259    1.33556
C    -0.47315    3.83728    2.19399
F     0.30691    2.72080    2.24869
C    -0.16957    4.92630    2.99625
F     0.87387    4.88594    3.82669
C    -0.96803    6.06512    2.91302
F    -0.69664    7.12637    3.66594
C    -2.05170    6.09332    2.03303
F    -2.80786    7.18539    1.94403
C    -2.31189    4.97057    1.26106
F    -3.31968    4.95323    0.37037
C    -3.87099    2.15867    0.48743
C    -4.80966    2.03963   -0.51698
F    -4.32941    1.92508   -1.76681
C    -6.17973    2.02471   -0.29206
F    -7.03846    1.90577   -1.30111
C    -6.64173    2.13161    1.01888
F    -7.94344    2.12736    1.27334
C    -5.72250    2.22234    2.06397
F    -6.14491    2.28404    3.32625
C    -4.36597    2.23763    1.77401
F    -3.47087    2.26931    2.79451
Ge     2.69974    0.37107    0.05430
C     4.33915   -0.82658   -0.00411
C     4.38279   -2.12201   -0.46858
F     3.23737   -2.65976   -0.99031
C     5.52556   -2.90635   -0.43215
F     5.49825   -4.16326   -0.87606
C     6.70007   -2.36288    0.08479
F     7.80872   -3.09377    0.12517
C     6.69961   -1.05238    0.56310
F     7.81569   -0.52346    1.05435
C     5.51679   -0.32614    0.51864
F     5.46993    0.93008    0.98876
C     3.46439    1.88747   -1.01642
C     4.58993    1.87751   -1.81558
F     5.10343    0.68781   -2.17862
C     5.18132    3.04745   -2.27686
F     6.25991    3.00230   -3.05702
C     4.63575    4.27540   -1.90730
F     5.20087    5.40832   -2.31157
C     3.47532    4.31190   -1.13425
F     2.93370    5.48431   -0.79469
C     2.90425    3.11704   -0.73736
F     1.74112    3.08976   -0.04646
Ge     1.42752    0.05276    2.39922
C     2.43544    1.33111    3.57175
C     3.21164    2.41906    3.24523
F     3.49697    2.62629    1.94384
C     3.69884    3.28871    4.21356
F     4.45753    4.33051    3.87302
C     3.38207    3.06500    5.55158
F     3.83311    3.89332    6.49010
C     2.59831    1.96823    5.91128
F     2.28971    1.74935    7.19035
C     2.15063    1.13127    4.90667
F     1.40949    0.03019    5.17360
C     2.71830   -1.55077    2.60072
C     3.83971   -1.67669    3.40278
F     4.27418   -0.61640    4.09029
C     4.56127   -2.86429    3.50044
F     5.64891   -2.93019    4.26512
C     4.15376   -3.98788    2.78365
F     4.83506   -5.12528    2.86463
C     3.03428   -3.89269    1.96153
F     2.61717   -4.93662    1.23356
C     2.36784   -2.68303    1.89539
F     1.28842   -2.57926    1.06044
Ge    -1.42892    0.54418    2.07779
Ge    -1.61647   -2.04707    1.24035
C    -1.51166   -3.58703    2.57863
C    -2.28952   -4.73007    2.65061
F    -3.28416   -4.89140    1.77516
C    -2.08562   -5.71093    3.61716
F    -2.86104   -6.79149    3.65578
C    -1.06511   -5.55676    4.55358
F    -0.85039   -6.48898    5.47496
C    -0.28407   -4.40366    4.52540
F     0.69038   -4.21819    5.41895
C    -0.54057   -3.45217    3.55208
F     0.17652   -2.29910    3.55571
C    -3.52043   -2.33571    0.61227
C    -3.94225   -3.25286   -0.32894
F    -3.01994   -4.06703   -0.87559
C    -5.26903   -3.35551   -0.72634
F    -5.63331   -4.23054   -1.66138
C    -6.21999   -2.51629   -0.14594
F    -7.49580   -2.60357   -0.49916
C    -5.82118   -1.57625    0.80323
F    -6.71825   -0.76031    1.36159
C    -4.48109   -1.50573    1.14604
F    -4.05046   -0.57766    2.05004
Ge    -0.45698   -2.60521   -1.11709
C    -1.79098   -2.40380   -2.60554
C    -1.99748   -3.30494   -3.63162
F    -1.12222   -4.30359   -3.76781
C    -3.08651   -3.21274   -4.49104
F    -3.25903   -4.09040   -5.47250
C    -4.02253   -2.19771   -4.29418
F    -5.09224   -2.10473   -5.07436
C    -3.83850   -1.28013   -3.26150
F    -4.74610   -0.32054   -3.04796
C    -2.72027   -1.39761   -2.45571
F    -2.49569   -0.48351   -1.44921
C     0.46695   -4.35839   -1.42350
C     0.18302   -5.43638   -0.61430
F    -0.74631   -5.25242    0.33969
C     0.83795   -6.65452   -0.73238
F     0.53510   -7.67363    0.07060
C     1.83122   -6.79412   -1.70010
F     2.47351   -7.94858   -1.83696
C     2.15867   -5.71108   -2.51529
F     3.12372   -5.82099   -3.42660
C     1.47190   -4.51761   -2.35339
F     1.80728   -3.44450   -3.09965
C    -1.66301    0.31928    4.08942
S    -1.10956    1.89400    4.81813
C    -1.81771    1.70286    6.47871
H     3.01897   -0.20933   -6.41156
H     1.97626   -1.37776   -7.25378
H     3.21091   -1.96541   -6.11659
H     3.21595   -1.37365   -3.67138
H     2.69769    0.33286   -3.70681
H    -1.07667   -0.48633    4.52047
H    -2.72248    0.20114    4.31963
H    -1.53308    2.58348    7.04475
H    -2.89946    1.63938    6.40548
H    -1.40177    0.81319    6.94212
