156
mol82-0
C    -1.60537   -3.92784    3.55794
S    -0.40016   -2.76533    4.23462
C    -1.20678   -1.19414    3.83863
Ge    -0.71237   -0.47073    1.98297
Ge    -2.58116   -0.85559    0.32419
C    -3.40304   -2.64238    0.63316
C    -4.27215   -2.77567    1.71005
C    -4.85408   -3.99335    2.00800
C    -4.57255   -5.10309    1.22761
C    -3.71904   -4.98002    0.14570
C    -3.13954   -3.75776   -0.14694
C    -4.11665    0.31672    0.77811
C    -4.06280    1.25227    1.79831
C    -5.15344    2.05331    2.08983
C    -6.31921    1.92180    1.35505
C    -6.38977    0.98421    0.33581
C    -5.29623    0.18786    0.05467
Ge    -1.72859   -0.39491   -1.98848
C    -1.86085   -2.04868   -3.08217
C    -0.74720   -2.64547   -3.65177
C    -0.86721   -3.78396   -4.42973
C    -2.11628   -4.33939   -4.64835
C    -3.24010   -3.74934   -4.09024
C    -3.10943   -2.61204   -3.31591
C    -2.91138    0.81977   -3.01643
C    -3.74833    1.75403   -2.42881
C    -4.52495    2.59652   -3.20417
C    -4.45823    2.52827   -4.58410
C    -3.62086    1.60243   -5.18473
C    -2.85938    0.75396   -4.40390
Ge     1.21238   -1.92028    1.22604
C     0.73523   -3.81298    0.88771
C     1.03590   -4.80399    1.81148
C     0.69649   -6.12186    1.56334
C     0.06123   -6.46380    0.38057
C    -0.22572   -5.48474   -0.55597
C     0.10728   -4.16810   -0.29741
C     2.77283   -1.91694    2.44436
C     3.96358   -2.50210    2.03664
C     5.08345   -2.46339    2.84566
C     5.02557   -1.82811    4.07527
C     3.84384   -1.23967    4.49083
C     2.72699   -1.28684    3.67707
Ge     2.18119   -1.17854   -0.96477
C     2.64719   -2.61667   -2.26982
C     2.94452   -3.89510   -1.81939
C     3.28989   -4.89942   -2.70605
C     3.35080   -4.63425   -4.06351
C     3.07117   -3.35931   -4.52637
C     2.72223   -2.36179   -3.63298
C     3.93378   -0.33533   -0.57244
C     4.08221    0.42567    0.57910
C     5.30470    0.97325    0.91689
C     6.39994    0.77591    0.09295
C     6.26501    0.02559   -1.06311
C     5.04064   -0.53097   -1.38837
Ge     0.59783    0.53904   -1.96467
Ge     0.42931    2.54920   -0.47039
C     2.00670    3.73187   -0.67309
C     1.91648    5.08363   -0.37022
C     3.02780    5.90192   -0.45499
C     4.24755    5.37559   -0.84790
C     4.34725    4.03105   -1.16310
C     3.23172    3.21984   -1.07360
C    -1.10741    3.66322   -1.03631
C    -2.28265    3.74620   -0.30490
C    -3.30617    4.58736   -0.70278
C    -3.17420    5.33655   -1.85906
C    -2.01836    5.23647   -2.61628
C    -0.99085    4.40952   -2.20229
Ge     0.11981    1.92371    1.94686
C    -1.08511    3.17352    2.93042
C    -1.85599    2.76874    4.01050
C    -2.61587    3.68086    4.72233
C    -2.60662    5.01795    4.36461
C    -1.82752    5.43814    3.29942
C    -1.07164    4.52023    2.59464
C     1.71131    2.17811    3.11955
C     2.86059    2.83439    2.70671
C     3.88668    3.08803    3.60140
C     3.77722    2.68522    4.92056
C     2.62833    2.04033    5.34673
C     1.60486    1.79775    4.45102
C     0.71562    1.27932   -3.86932
S     1.97329    2.54311   -4.14062
C     3.43892    1.48947   -4.25330
H    -1.25087   -4.92488    3.80250
H    -2.57271   -3.75476    4.02269
H    -1.67175   -3.81473    2.47842
H    -0.87060   -0.49984    4.60668
H    -2.28235   -1.32974    3.94253
H    -4.49902   -1.90630    2.31617
H    -5.52845   -4.07995    2.84878
H    -5.02294   -6.05729    1.46006
H    -3.50429   -5.83900   -0.47396
H    -2.48531   -3.67207   -1.00083
H    -3.15127    1.35431    2.37535
H    -5.08986    2.77944    2.88889
H    -7.17384    2.54502    1.57636
H    -7.29777    0.87845   -0.24120
H    -5.34767   -0.54262   -0.74441
H     0.23144   -2.21207   -3.48332
H     0.01493   -4.23524   -4.86293
H    -2.21696   -5.22795   -5.25497
H    -4.21752   -4.17944   -4.25845
H    -3.98663   -2.14984   -2.87827
H    -3.80203    1.82537   -1.35275
H    -5.18235    3.30944   -2.72788
H    -5.05730    3.19142   -5.19167
H    -3.56485    1.54121   -6.26265
H    -2.21622    0.01970   -4.87469
H     1.53441   -4.53218    2.73361
H     0.92926   -6.88576    2.29251
H    -0.20391   -7.49364    0.18768
H    -0.70568   -5.74689   -1.48867
H    -0.10743   -3.40249   -1.03654
H     4.01623   -2.98971    1.06992
H     6.00462   -2.92374    2.51676
H     5.90133   -1.79344    4.70778
H     3.79332   -0.74061    5.44769
H     1.80172   -0.83194    4.00510
H     2.89758   -4.11241   -0.76031
H     3.50939   -5.89133   -2.33707
H     3.61770   -5.41735   -4.75887
H     3.12364   -3.14582   -5.58524
H     2.50221   -1.36621   -3.99995
H     3.22745    0.58857    1.22583
H     5.40148    1.54870    1.82533
H     7.35844    1.20243    0.35260
H     7.11809   -0.13185   -1.70859
H     4.94448   -1.13397   -2.28351
H     0.96205    5.50010   -0.07214
H     2.94516    6.95238   -0.21303
H     5.11705    6.01406   -0.91106
H     5.29420    3.61285   -1.47469
H     3.31295    2.16715   -1.31283
H    -2.40251    3.15172    0.59247
H    -4.20877    4.65200   -0.11062
H    -3.97082    5.99609   -2.17343
H    -1.91587    5.80996   -3.52669
H    -0.07903    4.34470   -2.78434
H    -1.86832    1.72398    4.30015
H    -3.21660    3.34924    5.55804
H    -3.20076    5.73163    4.91723
H    -1.81126    6.48176    3.01873
H    -0.46240    4.84819    1.76172
H     2.95789    3.15895    1.67968
H     4.77228    3.61226    3.26924
H     4.57881    2.88208    5.61818
H     2.52806    1.73519    6.37901
H     0.69846    1.31351    4.79238
H    -0.23451    1.77813   -4.05806
H     0.84436    0.49548   -4.61551
H     3.36677    0.86030   -5.13689
H     3.52296    0.88393   -3.35317
H     4.29785    2.14752   -4.33963
