60
mol9-0
C     5.28785   -1.35052    0.04594
S     3.78833   -0.98379    0.99622
C     2.72277   -0.68789   -0.45390
C     1.25710   -0.35135   -0.17771
C     0.43194   -1.62298    0.16614
C     1.03341   -2.44388    1.21605
C     1.46319   -3.25941    1.98008
C     0.38490   -2.55960   -0.95629
C     0.37917   -3.44174   -1.76574
C    -1.01558   -1.18122    0.58978
C    -2.00436   -2.13065    0.07623
C    -2.82156   -2.96903   -0.17679
C    -1.20369   -1.31308    2.03445
C    -1.46138   -1.54833    3.17970
C     1.08561    0.68109    0.97458
C     1.36519    0.10049    2.28624
C     1.62126   -0.21891    3.41121
C     2.06833    1.76007    0.89320
C     2.92489    2.59290    0.96721
C    -0.38458    1.25124    0.93743
C    -0.38342    2.60753    0.39319
C    -0.33437    3.76717    0.10004
C    -0.90084    1.45592    2.28951
C    -1.33690    1.77563    3.35739
C    -1.28166    0.28397    0.11114
C    -0.87965    0.38956   -1.38666
C    -1.33060    1.62402   -2.02754
C    -1.72589    2.53151   -2.70102
C    -1.54216   -0.62951   -2.20024
C    -2.11505   -1.34423   -2.97121
C     0.68330    0.26585   -1.49549
C     1.29431    1.56252   -1.78729
C     1.82922    2.55979   -2.17804
C     1.04761   -0.50566   -2.68499
C     1.38864   -0.97967   -3.73081
C    -2.77413    0.54660    0.31419
S    -3.31492    2.28816    0.29486
C    -5.07678    1.93212    0.52970
H     5.56639   -0.48094   -0.54394
H     5.10585   -2.20584   -0.59952
H     6.06929   -1.58220    0.75988
H     3.18096    0.14266   -0.99976
H     2.77093   -1.58935   -1.07198
H     1.90266   -3.92137    2.66511
H     0.35885   -4.17857   -2.51153
H    -3.55318   -3.67018   -0.44471
H    -1.64853   -1.70727    4.19883
H     1.85125   -0.55686    4.37607
H     3.64994    3.34968    0.99769
H    -0.32188    4.76866   -0.20805
H    -1.70511    2.01511    4.30941
H    -2.10829    3.35852   -3.22134
H    -2.60625   -2.01168   -3.61359
H     2.28372    3.45977   -2.46511
H     1.69655   -1.44562   -4.61779
H    -3.07533    0.14857    1.28814
H    -3.33647    0.03119   -0.47008
H    -5.59742    2.88236    0.52682
H    -5.22238    1.42907    1.48230
H    -5.43114    1.30941   -0.28761
