36
mol48-3
C    -5.80233   -2.05559    0.63337
S    -4.05125    1.88142   -1.10577
C    -3.72672   -0.81859   -1.41699
Si    -2.92787    0.09046    0.29932
Si   -17.09002   12.09605    9.86613
Br    -4.23663    1.69713    2.96131
Br    -0.93235   -1.41062    1.09314
Si    52.68556   -3.21074   16.92805
Br    -1.52462    3.94629    2.29319
Br     1.62249    0.71816    0.40803
Si    -1.78200  -24.07443   -4.05906
Br    -0.93159   -1.41039    1.09184
Br    -2.88014   -0.88998   -3.51352
Si    -5.33602  -10.36772   -0.24506
Br    -4.19363    1.70983    2.88033
Br    -5.77322    2.17049   -1.10643
Si     2.93522    0.97173    0.82622
Si     9.71128    1.80461  -26.49292
Br    -2.41494   -0.46907   -3.67587
Br    -5.65511    2.27606   -1.14961
Si    -6.98337    2.17435   -1.50772
Br    -2.92675   -0.89044   -3.52766
Br    -5.77326    2.17052   -1.10641
C     5.00125    1.28970    2.35091
S     4.53257    0.97044   -0.08809
C     5.21009    1.49763    1.58272
H    -4.75112    1.40623    1.17618
H    -5.43262    2.84283    0.86224
H    -2.15294    0.99443   -0.22497
H    -4.02641   -0.36477   -1.30318
H    -3.23251    0.51361   -2.44332
H     3.44113   -0.27899    1.96241
H     3.17564   -0.12660    1.03448
H     6.21511    1.70913    1.30890
H     5.24278   -0.97012    1.23701
H     4.76428    2.40694    2.17080
