144
mol59-2
C     1.19167    4.54852   -4.49498
S     0.35410    4.09535   -2.94427
C     0.94469    2.37618   -2.94996
Ge     0.37889    1.27978   -1.40564
Ge    -1.59892   -0.04394   -2.09158
C    -3.02647    1.30263   -2.45398
C    -4.43686    0.72774   -2.58459
C    -2.70989    2.15088   -3.69231
C    -1.25170   -0.80980   -3.89575
C    -0.48110   -2.11580   -3.86105
C    -2.50871   -0.95580   -4.75311
Ge    -2.13151   -1.59245   -0.21952
C    -3.87220   -1.03314    0.58072
C    -5.08976   -1.53350   -0.21091
C    -4.04310   -1.49149    2.02732
C    -2.40026   -3.49854   -0.74893
C    -3.30706   -3.66120   -1.97312
C    -2.90631   -4.37436    0.40201
Ge    -0.22214    2.54767    0.66299
C     1.19301    3.86888    1.16693
C     1.92008    4.40264   -0.05640
C     0.72092    5.06790    1.99473
C    -1.96707    3.49617    0.52719
C    -2.34191    4.27339    1.79646
C    -2.02495    4.43970   -0.67077
Ge    -0.37492    0.84244    2.43048
C     0.97372    1.27972    3.77257
C     1.78732    0.21042    4.42235
C     0.88893    2.59572    4.48626
C    -1.98328    0.65093    3.57520
C    -3.16208    1.58873    3.39232
C    -1.70785    0.31972    5.03985
Ge    -0.25997   -1.39279    1.41055
Ge     1.98798   -1.84559    0.49049
C     3.34792   -1.74350    1.92664
C     3.18295   -2.85846    2.96087
C     4.75032   -1.77638    1.40505
C     2.09918   -3.71079   -0.21449
C     3.51724   -4.19029   -0.53110
C     1.19231   -3.92353   -1.41861
Ge     2.43366   -0.09609   -1.15082
C     4.00942    0.93730   -0.50726
C     4.53229    1.98208   -1.50454
C     3.78960    1.53778    0.88553
C     3.06939   -0.99894   -2.81413
C     2.70374   -0.24269   -4.08853
C     4.57374   -1.30983   -2.81814
C    -0.58739   -2.62620    2.91341
S    -0.05454   -4.32760    2.54700
C    -0.51682   -4.98553    4.17929
H     0.82047    3.91605   -5.32813
H     0.97347    5.61110   -4.72616
H     2.28915    4.42258   -4.38682
H     0.60078    1.89052   -3.88138
H     2.04876    2.39869   -2.96414
H    -3.04569    1.97153   -1.58787
H    -4.90937    0.68494   -1.58727
H    -4.42832   -0.26686   -3.06795
H    -5.09034    1.39392   -3.18862
H    -1.64489    2.41012   -3.73127
H    -2.96772    1.62094   -4.63068
H    -3.29460    3.09515   -3.66289
H    -0.62464   -0.05868   -4.41394
H     0.45953   -1.94740   -3.32890
H    -1.05493   -2.91252   -3.35462
H    -0.23731   -2.44835   -4.89253
H    -2.24254   -0.95927   -5.83171
H    -3.07974   -1.87606   -4.53542
H     0.00000    0.00000    0.00000
H    -3.87129    0.07736    0.56715
H    -5.38466   -2.56104    0.08063
H    -4.89534   -1.55021   -1.29279
H    -5.96102   -0.87289   -0.01470
H    -3.16477   -1.23335    2.61279
H    -4.18957   -2.58582    2.10568
H    -4.92295   -0.98886    2.48254
H    -1.41922   -3.89653   -1.02224
H    -2.96629   -4.52060   -2.58918
H    -3.27927   -2.74983   -2.58588
H    -4.36549   -3.84594   -1.69795
H    -2.64532   -5.43707    0.21014
H    -4.00526   -4.31441    0.52142
H    -2.45199   -4.06953    1.35602
H     1.91874    3.32142    1.79209
H     1.32098    5.18238   -0.56941
H     2.89590    4.84601    0.23548
H     2.09872    3.57811   -0.75190
H     1.60304    5.64746    2.34254
H     0.09522    5.75139    1.38737
H     0.17092    4.75942    2.89509
H    -2.73177    2.71060    0.39313
H    -3.44035    4.22706    1.95605
H    -1.83599    3.85094    2.67923
H    -2.07808    5.34829    1.73019
H    -1.21556    5.19623   -0.61545
H    -1.93113    3.87385   -1.60785
H    -3.00425    4.96381   -0.70047
H     0.00000    0.00000    0.00000
H     2.86512    0.46190    4.34625
H     1.58366   -0.75467    3.94525
H     1.51547    0.11782    5.49453
H     1.71183    3.25882    4.15305
H    -0.09492    3.06840    4.30206
H     0.97953    2.45338    5.58367
H     0.00000    0.00000    0.00000
H    -3.00236    2.53054    3.95215
H    -3.34944    1.76029    2.32005
H    -4.07299    1.10934    3.80699
H    -1.35589    1.22058    5.58223
H    -0.94807   -0.48185    5.11759
H    -2.63703   -0.04767    5.52361
H     3.22321   -0.76871    2.41790
H     3.91596   -2.72497    3.78520
H     3.33985   -3.85756    2.50764
H     2.17726   -2.83824    3.40785
H     4.96980   -1.97993    0.36991
H     0.00000    0.00000    0.00000
H     5.58115   -1.60721    2.08235
H     1.73819   -4.36993    0.59297
H     3.48467   -5.23739   -0.90192
H     4.15355   -4.19298    0.37296
H     3.97768   -3.56784   -1.31579
H     1.75368   -3.97263   -2.37391
H     0.64470   -4.88451   -1.31667
H     0.47816   -3.08961   -1.47359
H     4.82909    0.20170   -0.41213
H     4.64307    1.56445   -2.51701
H     5.53200    2.33831   -1.17607
H     3.87982    2.86063   -1.58539
H     2.78105    1.29030    1.27122
H     3.92352    2.63790    0.88406
H     4.53669    1.13216    1.59984
H     2.56401   -1.97328   -2.84703
H     3.00728   -0.83202   -4.98007
H     1.61566   -0.09877   -4.14502
H     3.20850    0.74195   -4.13335
H     4.92679   -1.62323   -1.82368
H     4.77896   -2.13956   -3.52817
H     5.18321   -0.44599   -3.14404
H    -0.04830   -2.26450    3.80607
H    -1.65878   -2.64752    3.16836
H    -0.28008   -6.06857    4.21245
H    -1.60502   -4.85020    4.35089
H     0.05746   -4.46782    4.97562
