36
mol0-A-0
C         -4.71000       -3.48780       -0.84290
S         -3.24020       -2.58350       -1.42240
C         -2.93460       -1.74810        0.17970
C         -1.69890       -0.81520        0.15180
C         -1.52020       -0.15470        1.54620
C         -0.29170        0.78850        1.56060
C         -1.86120        0.32510       -0.89260
C         -0.63120        1.26950       -0.87820
C          0.41310        0.80640        0.17650
C          0.83600       -0.65230       -0.15580
C         -0.39410       -1.59680       -0.17030
C          1.63270        1.75890        0.23320
S          2.54220        1.85650       -1.35460
C          3.78640        3.03620       -0.74320
H         -5.49490       -2.77300       -0.51900
H         -5.10730       -4.10380       -1.67530
H         -4.43920       -4.15610        0.00080
H         -2.79140       -2.52500        0.96190
H         -3.83660       -1.15590        0.44730
H         -1.39120       -0.93970        2.32450
H         -2.43260        0.42450        1.81170
H         -0.61960        1.81650        1.83300
H          0.42180        0.45230        2.34580
H         -1.97670       -0.09990       -1.91310
H         -2.78170        0.91040       -0.67330
H         -0.17570        1.28280       -1.89200
H         -0.96240        2.30730       -0.65190
H          1.57250       -1.01300        0.59600
H          1.33270       -0.69320       -1.14940
H         -0.46810       -2.07590       -1.17050
H         -0.24680       -2.41000        0.57470
H          1.28950        2.78010        0.50740
H          2.33480        1.41100        1.02200
H          3.29380        3.97540       -0.41600
H          4.49640        3.27030       -1.56270
H          4.34970        2.59240        0.10380
