72
mol16-D-0
C          1.30950       -3.42600       -3.46730
S          0.69290       -1.75080       -3.10300
C          0.77820       -1.91990       -1.28480
C          0.36130       -0.76210       -0.27860
C          1.54450        0.42280       -0.28370
Ge         3.49240       -0.16650       -0.00650
F          4.59930        0.96780       -0.77470
F          3.94940       -1.66370       -0.80790
F          4.25190       -0.15710        1.55620
Ge         2.07730        1.03480       -2.17960
F          3.03060        2.51050       -2.13440
F          1.07730        1.15230       -3.60240
F          3.21080       -0.12990       -2.86350
C          1.11240        1.59720        0.79240
Ge         2.63590        2.31590        1.99190
F          2.11040        3.82620        2.72770
F          4.01790        2.74470        0.99670
F          3.47850        1.53210        3.30250
Ge         1.01040        3.46000       -0.10160
F          2.55220        4.30380       -0.13340
F          0.03660        4.67630        0.70760
F          0.69000        3.61040       -1.80290
C         -1.14900       -0.08220       -0.62680
Ge        -2.50900       -1.55750       -1.17480
F         -1.83310       -2.78300       -2.22970
F         -3.45770       -2.44330       -0.01160
F         -3.83120       -0.97640       -2.17750
Ge        -1.51370        0.83950       -2.41180
F         -3.19020        1.35940       -2.39250
F         -1.50910       -0.23590       -3.79970
F         -0.83810        2.33100       -2.98610
C         -1.56630        0.95570        0.60700
Ge        -3.42800        0.45860        1.28180
F         -4.50020        0.46300       -0.10800
F         -4.18340        1.67720        2.29550
F         -3.94070       -1.06400        1.93740
Ge        -2.31030        2.83220        0.10590
F         -2.38940        3.94370        1.45860
F         -3.99670        2.82500       -0.39170
F         -1.67250        3.77740       -1.21210
C         -0.25390        1.09720        1.66650
C          0.04880       -0.37110        2.41230
Ge        -1.30780       -0.82610        3.89750
F         -3.00340       -0.42960        3.97620
F         -0.86210        0.03740        5.36880
F         -1.18030       -2.50790        4.39120
Ge         1.52260       -0.43440        3.84130
F          1.59940        0.96090        4.90900
F          1.20560       -1.71940        5.00340
F          3.15520       -0.90000        3.47150
C          0.29480       -1.51010        1.24360
Ge        -1.00870       -3.10480        1.43660
F         -1.28360       -4.08280        0.00480
F         -2.55200       -2.89970        2.20860
F         -0.42600       -4.35380        2.52780
Ge         1.86010       -2.81780        1.58410
F          3.57870       -2.52250        1.55080
F          1.69040       -4.19550        0.50170
F          1.72950       -3.48530        3.20330
C         -0.45920        2.21460        2.77810
S         -1.96780        2.34950        3.80160
C         -1.41030        3.80070        4.75130
H          1.33160       -3.57080       -4.56660
H          2.33830       -3.54920       -3.06930
H          0.63850       -4.18760       -3.01860
H          0.22130       -2.82670       -1.06590
H          1.80840       -2.21100       -1.09160
H         -0.33020        3.20300        2.34580
H          0.35050        2.15500        3.50230
H         -2.20810        4.09360        5.46380
H         -1.20950        4.65210        4.06810
H         -0.49230        3.55300        5.32380
