36
mol10-B-2
C          3.54010       -3.10940        3.15890
S          1.90510       -3.03050        2.36060
C          2.10510       -1.31610        1.72910
C          0.94190       -0.60490        0.88410
C          0.79550       -1.18420       -0.64690
Si         1.14120       -3.07050       -0.82250
Si         2.30110       -0.78580       -1.77660
C         -0.62420       -0.67960       -1.28530
Si        -1.92630       -2.07280       -1.49770
Si        -0.60940       -0.44410       -3.19560
C         -0.47360       -0.89210        1.67330
Si        -0.37780       -0.87130        3.60670
Si        -0.92970       -2.76180        1.74740
C         -1.64460        0.04830        1.05570
Si        -2.22340        1.45450        2.23780
Si        -3.41700       -0.72350        1.15760
C         -1.18870        0.59950       -0.42670
C          0.04380        1.66550       -0.21440
Si        -0.51580        3.45590        0.22110
Si         0.82340        2.29090       -1.85850
C          1.15050        1.02060        0.80410
Si         2.95990        1.60230        0.50000
Si         1.20480        1.85480        2.53120
C         -2.48750        1.25000       -1.10730
S         -2.34230        2.32440       -2.59130
C         -4.12870        2.64390       -2.74510
H          3.66060       -4.10260        3.63730
H          3.62350       -2.32380        3.93840
H          4.34160       -2.97620        2.40290
H          3.03870       -1.32840        1.13560
H          2.33150       -0.71620        2.63000
H         -3.02290        1.87380       -0.36770
H         -3.19610        0.44940       -1.39200
H         -4.30290        3.30720       -3.61700
H         -4.50750        3.14680       -1.83110
H         -4.67520        1.69140       -2.90490
