36
mol19-A-1
C          2.67720       -4.78380       -3.34910
S          1.07600       -4.08170       -2.84030
C          1.74140       -3.20000       -1.37560
C          0.73240       -2.36190       -0.48990
C         -0.20620       -1.50690       -1.49650
Cl         0.70460       -0.74130       -2.86260
Cl        -1.26000       -2.58690       -2.49120
C         -1.06150       -0.43120       -0.68150
Cl        -0.45740        1.24930       -0.94520
Cl        -2.71150       -0.21330       -1.38170
C         -0.22610       -3.28080        0.43270
Cl         0.65120       -4.07920        1.79530
Cl        -0.78390       -4.76840       -0.43350
C         -1.43720       -2.39340        0.99810
Cl        -2.97410       -2.82470        0.15200
Cl        -1.92210       -2.84950        2.68090
C         -1.06170       -0.82570        0.87620
C          0.44430       -0.62300        1.43840
Cl         0.87300        1.10850        1.75570
Cl         0.59870       -1.21960        3.13750
C          1.50070       -1.32370        0.46590
Cl         2.87730       -2.05120        1.38030
Cl         2.44660       -0.11480       -0.48410
C         -2.01570        0.11520        1.71870
S         -3.82390       -0.17840        1.61920
C         -4.27090        1.17150        2.75640
H          3.08110       -5.43530       -2.54640
H          2.53020       -5.39250       -4.26460
H          3.39810       -3.96990       -3.57160
H          2.24590       -3.96020       -0.74550
H          2.54100       -2.53460       -1.75880
H         -1.75470        0.04280        2.79370
H         -1.84590        1.17180        1.42890
H         -3.92530        2.14450        2.34920
H         -5.37410        1.20070        2.86650
H         -3.81560        0.99790        3.75350
