36
mol12-B-2
C          0.01240       -1.41810        4.83980
S          0.67820       -0.48690        3.42350
C         -0.67560       -0.94180        2.26990
C         -0.67270       -0.40450        0.76850
C         -0.20860        1.16650        0.68940
Ge        -1.04340        2.34310        2.06680
Ge         1.61290        1.47900        1.42190
C         -0.38270        1.70670       -0.83920
Ge        -1.89300        2.99920       -0.99880
Ge         0.97730        3.05890       -1.38970
C         -2.12460       -0.55850        0.01380
Ge        -3.55030        0.62440        0.75200
Ge        -3.10920       -2.22720        0.49020
C         -1.92340       -0.33470       -1.58880
Ge        -2.12910       -2.00950       -2.63980
Ge        -3.48710        0.51090       -2.49350
C         -0.49350        0.42200       -1.85830
C          0.71620       -0.63000       -1.49380
Ge         2.52860        0.19120       -1.62640
Ge         1.13900       -1.96240       -2.92950
C          0.43200       -1.30390       -0.05220
Ge        -0.07030       -3.22960       -0.17780
Ge         2.10010       -1.73450        0.97150
C         -0.31440        0.81060       -3.39440
S         -1.16080        2.28580       -4.08570
C         -0.51060        2.07700       -5.77390
H         -0.05140       -2.49780        4.59140
H         -0.99300       -1.03430        5.11150
H          0.69120       -1.28970        5.70750
H         -1.60080       -0.61350        2.78010
H         -0.70850       -2.04800        2.26480
H         -0.62700       -0.04090       -4.02830
H          0.75760        0.97420       -3.61360
H         -0.84150        1.10430       -6.19340
H          0.59810        2.12600       -5.76570
H         -0.90030        2.89430       -6.41450
