36
mol18-C-2
C          4.08210        2.50670       -1.78930
S          3.20030        1.05390       -2.44550
C          3.40210       -0.00740       -0.95730
C          2.76690       -1.43100       -1.06810
C          3.47040       -2.20040       -2.24490
F          3.39960       -1.45210       -3.41200
F          4.81800       -2.36930       -1.95870
C          2.81350       -3.59540       -2.48190
F          3.78930       -4.58170       -2.49110
F          2.21670       -3.60320       -3.73360
C          2.96930       -2.27170        0.23590
F          4.30980       -2.28560        0.59240
F          2.27320       -1.70190        1.29120
C          2.46460       -3.73270        0.02420
F          1.59000       -4.07180        1.04760
F          3.53890       -4.60750        0.10900
C          1.75440       -3.89550       -1.36860
C          0.62450       -2.81200       -1.46550
F         -0.07670       -2.93520       -2.65460
F         -0.28880       -3.00040       -0.43800
C          1.22910       -1.37250       -1.37880
F          0.55330       -0.66170       -0.39970
F          1.02300       -0.70410       -2.57710
C          1.18720       -5.34750       -1.46690
S          0.40710       -5.76620       -3.07210
C         -0.02630       -7.46880       -2.59460
H          5.13640        2.24230       -1.56470
H          4.06950        3.31170       -2.55220
H          3.58180        2.87650       -0.87110
H          4.49550       -0.10590       -0.79080
H          3.00370        0.50920       -0.05840
H          2.00710       -6.07620       -1.28970
H          0.42980       -5.50290       -0.66920
H         -0.71020       -7.45820       -1.72060
H          0.89170       -8.04150       -2.34690
H         -0.53870       -7.96350       -3.44490
