36
mol18-A-1
C          4.59310       -1.36500       -0.60090
S          3.43150       -0.05830       -0.09310
C          1.92600       -1.01450       -0.51640
C          0.57940       -0.27320       -0.24350
C          0.44100       -0.04310        1.30570
F          0.35660       -1.26910        1.95110
F          1.56910        0.59580        1.80130
C         -0.82390        0.80780        1.64020
F         -1.53940        0.18110        2.64830
F         -0.43980        2.04820        2.12920
C          0.52840        1.12930       -0.93670
F          1.54030        1.93690       -0.43770
F          0.73960        1.01600       -2.30190
C         -0.85700        1.80320       -0.68760
F         -0.66240        3.10500       -0.24710
F         -1.55340        1.88370       -1.88570
C         -1.70470        0.99260        0.35950
C         -1.99180       -0.42830       -0.24360
F         -2.58630       -1.24560        0.70600
F         -2.87990       -0.32360       -1.30450
C         -0.66550       -1.10010       -0.72480
F         -0.68490       -1.18350       -2.10890
F         -0.59050       -2.39780       -0.23950
C         -3.01520        1.78680        0.65800
S         -4.20370        0.92710        1.75740
C         -5.43760        2.26560        1.72860
H          5.63100       -1.01120       -0.43380
H          4.42490       -2.28120        0.00250
H          4.46170       -1.59520       -1.67860
H          1.94900       -1.96350        0.06090
H          1.98780       -1.28120       -1.59330
H         -3.53830        2.00670       -0.29750
H         -2.75840        2.76120        1.12580
H         -5.78850        2.43940        0.69010
H         -4.99840        3.19890        2.13830
H         -6.30430        1.97180        2.35540
