36
mol10-A-2
C         -2.40320       -2.40770        3.69410
S         -1.33440       -2.55570        2.22690
C         -1.41460       -0.77570        1.77610
C         -0.63510       -0.21150        0.49280
C          0.88410       -0.82140        0.38300
Si         0.91690       -2.73730        0.28470
Si         1.85120       -0.92040        2.04430
C          1.68700       -0.07660       -0.83290
Si         3.06870        1.10220       -0.19800
Si         3.00150       -1.16440       -1.72550
C         -1.47200       -0.70390       -0.83630
Si        -3.25050        0.03030       -0.92220
Si        -2.24280       -2.47680       -0.73560
C         -0.58440       -0.43970       -2.17020
Si        -1.63000       -0.08170       -3.75950
Si         0.07300       -2.04710       -3.00310
C          0.60620        0.64700       -1.83750
C         -0.07540        1.90920       -1.04130
Si        -1.46010        2.77230       -2.05100
Si         0.93400        3.54770       -1.08280
C         -0.53900        1.42860        0.45270
Si        -2.08550        2.33590        1.15510
Si         0.55500        2.17810        1.84660
C          1.23890        1.09690       -3.24120
S          2.84140        1.99390       -3.31450
C          2.87280        2.13780       -5.12970
H         -2.50990       -3.40620        4.16500
H         -3.40840       -2.04130        3.39950
H         -1.94910       -1.71150        4.42950
H         -1.07000       -0.24660        2.68390
H         -2.49250       -0.54360        1.68570
H          0.51810        1.73770       -3.78330
H          1.39130        0.20930       -3.88290
H          3.79660        2.67120       -5.43360
H          2.87220        1.12950       -5.59350
H          1.99320        2.71500       -5.48290
