72
mol14-A-0
C         -1.13560        5.05260       -1.64690
S         -1.37020        3.27220       -1.95440
C         -0.55520        2.71280       -0.41270
C         -0.38430        1.18170        0.00990
C         -1.87790        0.59090        0.52540
Si        -3.38820        1.04380       -0.73050
F         -4.77540        0.14660       -0.38350
F         -3.28360        1.04330       -2.39240
F         -3.90100        2.65080       -0.55030
Si        -2.90790        1.62140        1.90100
F         -4.57460        1.32250        1.84200
F         -2.69900        1.28700        3.51470
F         -2.84800        3.30050        1.73060
C         -1.68340       -0.99340        0.98470
Si        -2.63770       -1.58180        2.66590
F         -4.25150       -1.08950        2.64920
F         -2.67570       -3.27120        2.76580
F         -2.23620       -1.13140        4.22000
Si        -2.93880       -2.21370       -0.01460
F         -4.50370       -2.32870        0.61560
F         -3.39360       -1.77480       -1.55230
F         -2.50030       -3.84000       -0.07640
C          0.24640        0.21140       -1.23920
Si         1.71650        1.19430       -2.25150
F          2.02990        0.64280       -3.81910
F          3.29080        1.18770       -1.70130
F          1.37290        2.81540       -2.53460
Si        -0.67290        0.01880       -2.99220
F         -0.80570        1.42750       -3.90950
F         -2.11190       -0.78120       -3.19720
F          0.26320       -0.97450       -3.98310
C          0.55640       -1.31720       -0.62490
Si        -0.03380       -2.95450       -1.68480
F          0.89710       -3.32800       -3.04650
F          0.06120       -4.39070       -0.81640
F         -1.52810       -3.00720       -2.42330
Si         2.42030       -1.82690       -1.09580
F          3.75720       -0.95100       -0.65110
F          2.82910       -3.44090       -0.82880
F          2.61340       -1.67330       -2.76440
C         -0.02280       -1.38820        0.97480
C          0.83180       -0.32210        1.96440
Si         2.65500       -1.00760        2.48350
F          2.56710       -2.16810        3.71790
F          3.68260       -1.84900        1.47900
F          3.60900        0.21160        3.15650
Si         0.44290       -0.29780        3.93000
F         -0.70780        0.73680        4.53400
F          1.74170        0.27450        4.85520
F          0.16130       -1.81190        4.62260
C          0.71920        1.20130        1.31210
Si         0.41240        2.72710        2.60060
F          1.47930        2.64140        3.90500
F          0.72720        4.21070        1.84860
F         -1.00150        3.02950        3.43050
Si         2.53960        2.00160        0.98110
F          3.79460        0.96770        0.63450
F          3.26940        2.73740        2.31730
F          2.60630        3.25220       -0.14700
C          0.05960       -2.85350        1.60580
S          1.55070       -3.91550        1.55530
C          0.80520       -5.31620        2.45090
H         -0.05430        5.28750       -1.56100
H         -1.66120        5.35230       -0.71650
H         -1.55980        5.62420       -2.49740
H         -1.08970        3.24550        0.37110
H          0.41020        3.20790       -0.42880
H         -0.72670       -3.48160        1.20050
H         -0.18810       -2.80460        2.66410
H          1.55440       -6.12960        2.53570
H         -0.07780       -5.69830        1.89790
H          0.50290       -5.00010        3.47100
