72
mol14-C-1
C         -5.40560        1.17010       -1.73620
S         -3.85590        0.25030       -2.00380
C         -2.96730        0.97220       -0.57430
C         -1.46610        0.60500       -0.16980
C         -1.55250       -0.97570        0.46860
Si        -2.80100       -2.18830       -0.55790
F         -2.77730       -3.75360        0.07150
F         -4.40120       -1.65770       -0.40540
F         -2.68790       -2.55040       -2.18130
Si        -2.75620       -1.27610        2.05750
F         -4.12630       -0.29830        2.14580
F         -3.45290       -2.81290        2.16740
F         -2.06500       -1.28100        3.56950
C         -0.01690       -1.54300        0.75050
Si         0.32700       -2.56590        2.45300
F          1.62770       -3.64310        2.29240
F         -0.97050       -3.57140        2.84680
F          0.79580       -1.88680        3.89930
Si         0.29330       -3.28650       -0.18700
F          1.90860       -3.76930       -0.28410
F         -0.41840       -4.60220        0.60880
F         -0.38780       -3.55850       -1.67750
C         -0.51100        0.61660       -1.56030
Si        -1.11500       -0.42450       -3.16240
F         -0.47950        0.16930       -4.61640
F         -0.62890       -2.00090       -3.35750
F         -2.77620       -0.37690       -3.46210
Si        -0.79010        2.25370       -2.70290
F         -2.21520        2.15180       -3.61750
F         -1.02450        3.79680       -2.12260
F          0.41770        2.40920       -3.87190
C          1.04160        0.21010       -1.13180
Si         2.02900       -1.05230       -2.36240
F          3.68650       -1.03930       -2.01930
F          1.70630       -2.67700       -2.55100
F          1.89200       -0.56020       -3.97050
Si         2.36230        1.61930       -1.70960
F          1.83680        3.19450       -1.78950
F          3.83700        1.63320       -0.89350
F          2.88610        1.51720       -3.31410
C          1.07060       -0.27700        0.50380
C          0.67440        1.05490        1.48820
Si         2.25030        2.33730        1.64450
F          2.52380        3.50750        0.48820
F          2.24060        3.35870        2.99220
F          3.73270        1.56570        1.82610
Si         0.71270        0.94790        3.47370
F          2.22380        0.65860        4.16380
F          0.30950        2.46100        4.10060
F         -0.36250        0.05870        4.37130
C         -0.81940        1.64750        1.01120
Si        -0.66210        3.60790        0.71600
F         -2.11610        4.43920        0.52020
F          0.39190        4.29740       -0.36390
F         -0.02500        4.31130        2.11030
Si        -2.21290        2.09210        2.42980
F         -1.94560        3.51200        3.30860
F         -3.74690        2.37590        1.80320
F         -2.47010        1.07870        3.72920
C          2.55340       -0.81790        0.74990
S          3.25970       -1.17570        2.40130
C          4.88930       -1.71250        1.78830
H         -5.21680        2.26260       -1.78740
H         -6.13000        0.89450       -2.52950
H         -5.83950        0.90890       -0.74870
H         -3.06710        2.04350       -0.71410
H         -3.62650        0.77330        0.26800
H          2.69400       -1.74680        0.20100
H          3.27690       -0.15220        0.29110
H          4.77770       -2.60350        1.13600
H          5.52940       -1.98050        2.65340
H          5.37600       -0.89060        1.22330
