36
mol18-E-0
C         -3.09380       -5.12390       -0.70170
S         -1.82030       -4.63290        0.50550
C         -1.01760       -3.35780       -0.54770
C          0.19690       -2.62620        0.10910
C         -0.23180       -1.76060        1.34510
F         -0.86510       -2.54570        2.29560
F         -1.14350       -0.79350        0.94780
C          1.01330       -1.07600        1.99800
F          1.19480       -1.59800        3.26990
F          0.77710        0.28290        2.14680
C          1.31840       -3.62480        0.56770
F          1.66580       -4.46650       -0.47890
F          0.85200       -4.42840        1.59710
C          2.58260       -2.85080        1.06550
F          3.64910       -3.09830        0.21350
F          2.94380       -3.33240        2.31410
C          2.29920       -1.30920        1.12800
C          1.98220       -0.82470       -0.32910
F          1.62750        0.51720       -0.31150
F          3.11150       -0.93080       -1.12950
C          0.82590       -1.65960       -0.95320
F         -0.14180       -0.80180       -1.45790
F          1.31140       -2.39310       -2.02700
C          3.52950       -0.50490        1.65850
S          3.98530       -0.84360        3.40690
C          5.39980        0.30310        3.47580
H         -3.74960       -5.89210       -0.24340
H         -3.71200       -4.24740       -0.98610
H         -2.61350       -5.55440       -1.60490
H         -1.76480       -2.60920       -0.88630
H         -0.67700       -3.88240       -1.46530
H          3.30970        0.58190        1.59970
H          4.40120       -0.67430        0.99160
H          5.87500        0.23160        4.47550
H          5.05090        1.34480        3.31770
H          6.14910        0.03600        2.70220
