36
mol12-B-1
C         -0.37380       -2.12540        4.61830
S         -0.36530       -2.41060        2.81970
C         -0.51280       -0.63780        2.36610
C         -0.56100       -0.19680        0.83450
C         -0.19950        1.39230        0.65110
Ge        -1.09260        2.59790        1.96540
Ge         1.60620        1.86490        1.33530
C         -0.42490        1.82340       -0.90520
Ge        -2.01660        3.00510       -1.12170
Ge         0.83940        3.22170       -1.55890
C         -2.00840       -0.48950        0.11280
Ge        -3.49860        0.64480        0.79770
Ge        -2.87860       -2.18390        0.70650
C         -1.83980       -0.35450       -1.50340
Ge        -1.94940       -2.10170       -2.44540
Ge        -3.46440        0.33190       -2.43510
C         -0.46440        0.47280       -1.84090
C          0.81420       -0.47560       -1.43020
Ge         2.56860        0.44870       -1.64080
Ge         1.30560       -1.86610       -2.78680
C          0.58990       -1.07430        0.05450
Ge         0.21070       -3.03200        0.05610
Ge         2.29340       -1.33320        1.07760
C         -0.32770        0.77470       -3.40060
S         -1.27450        2.14700       -4.16920
C         -0.63120        1.87420       -5.85090
H         -1.32330       -1.63890        4.92370
H          0.48650       -1.48720        4.90860
H         -0.28770       -3.10100        5.13890
H          0.34380       -0.14820        2.86680
H         -1.41830       -0.26840        2.88420
H         -0.59200       -0.13310       -3.97580
H          0.72910        0.99170       -3.64580
H         -0.90360        0.85800       -6.20420
H          0.47210        1.99360       -5.86250
H         -1.07960        2.62330       -6.53490
