72
mol16-B-2
C         -2.70730        2.69360       -3.97190
S         -2.65180        0.98410       -3.34470
C         -1.21510        1.24350       -2.24450
C         -0.59020        0.09720       -1.33790
C         -1.57950       -0.34370       -0.03730
Ge        -3.57350       -0.41870       -0.62450
F         -4.29560       -1.84000       -1.32850
F         -4.04700        0.89640       -1.68180
F         -4.71700       -0.18920        0.69130
Ge        -2.11060        1.00620        1.39940
F         -1.08050        1.74720        2.58300
F         -3.16520        0.17250        2.52810
F         -3.16660        2.29060        0.83550
C         -0.92490       -1.68430        0.70320
Ge        -0.79250       -1.69630        2.77890
F          0.20920       -2.98660        3.41410
F         -0.34550       -0.28770        3.70270
F         -2.31090       -2.05040        3.59170
Ge        -2.36370       -3.12620        0.84160
F         -3.24970       -3.86040       -0.45730
F         -3.74100       -2.40610        1.65740
F         -1.97190       -4.44160        1.93660
C         -0.41470       -1.23370       -2.37660
Ge        -2.13500       -1.92820       -3.29210
F         -3.38000       -0.74200       -3.64580
F         -1.86080       -2.54630       -4.91470
F         -2.94590       -3.34500       -2.69650
Ge         0.31010       -0.72560       -4.24550
F          1.78770        0.09520       -4.67600
F          0.51190       -2.17640       -5.21440
F         -0.91070        0.22440       -5.08550
C          0.39790       -2.44200       -1.59990
Ge        -0.31030       -4.36280       -1.84950
F          1.02840       -5.49720       -1.67570
F         -0.83440       -4.64470       -3.50320
F         -1.41670       -5.25090       -0.83690
Ge         2.07660       -3.00460       -2.64080
F          1.65570       -4.10620       -3.94900
F          3.22750       -3.98620       -1.74370
F          2.98720       -1.88570       -3.60920
C          0.58340       -2.00840        0.00680
C          1.55790       -0.62400        0.12610
Ge         2.03450        0.01250        2.03600
F          2.17470       -1.22540        3.27300
F          3.64000        0.71840        2.15540
F          1.19650        1.35220        2.75870
Ge         3.56580       -1.00450       -0.19020
F          4.17160       -1.98320        1.14170
F          4.47120        0.49800       -0.10660
F          4.35450       -1.71950       -1.57170
C          0.90990        0.59200       -0.78230
Ge         2.25850        1.29600       -2.16210
F          1.58010        2.29960       -3.43690
F          3.37840        2.43020       -1.41270
F          3.46440        0.27590       -2.88600
Ge         0.88910        2.47880        0.05010
F          2.36960        2.80530        0.93900
F          0.94780        3.67840       -1.24080
F         -0.38940        3.25560        0.94440
C          1.39530       -3.14610        0.76380
S          0.67490       -4.76420        1.21600
C          2.18400       -5.41910        1.99870
H         -3.53280        2.78130       -4.70730
H         -2.89470        3.40090       -3.13730
H         -1.75120        2.94900       -4.47420
H         -1.50850        2.08060       -1.61480
H         -0.45100        1.67400       -2.88570
H          2.28180       -3.40020        0.18680
H          1.80820       -2.75930        1.69130
H          2.48920       -4.77020        2.84570
H          1.97680       -6.43800        2.38480
H          3.00540       -5.47840        1.25470
