72
mol16-E-2
C          2.44620        2.23960       -4.91680
S          1.84260        0.62960       -4.31480
C          1.57580        1.17200       -2.58950
C          1.02540        0.21370       -1.44710
C          1.95810       -1.19850       -1.57540
Ge         1.90670       -2.18130       -3.39500
F          1.67770       -1.19020       -4.82600
F          3.43220       -2.94540       -3.81830
F          0.93040       -3.60300       -3.60730
Ge         3.96770       -0.82830       -1.89310
F          4.84600       -2.34810       -1.94730
F          4.16560       -0.12310       -3.49370
F          5.08960        0.09870       -0.93200
C          1.60830       -2.21160       -0.32040
Ge         3.29720       -2.69710        0.74270
F          4.19210       -3.98060       -0.06570
F          4.63410       -1.60070        0.91350
F          3.01410       -3.43490        2.31390
Ge         1.39910       -4.21560       -0.76030
F          1.83310       -5.16550        0.66040
F         -0.05930       -5.10130       -1.11640
F          2.58610       -4.74080       -1.94510
C          1.27790        0.93380        0.04340
Ge         0.62610        2.88880        0.12530
F         -0.73310        3.61380       -0.69010
F          0.56910        3.47830        1.78000
F          1.84260        3.93260       -0.60910
Ge         3.16560        1.62310        0.46740
F          3.09650        2.95360        1.61920
F          4.32910        0.66910        1.33620
F          4.00670        2.39270       -0.87180
C          0.73370       -0.09050        1.21750
Ge         1.95260       -0.27670        2.87750
F          1.02790       -1.02330        4.17600
F          2.38220        1.31760        3.47580
F          3.50800       -1.05130        3.02960
Ge        -0.68410        0.80860        2.42620
F         -1.76040       -0.25680        3.31440
F          0.01100        1.69920        3.77300
F         -1.65580        2.11940        1.82850
C          0.30790       -1.58000        0.52430
C         -1.00850       -1.35000       -0.51450
Ge        -1.88480       -2.91910       -1.48330
F         -2.71990       -4.04900       -0.43020
F         -1.20310       -3.89120       -2.74880
F         -3.22480       -2.26980       -2.41280
Ge        -2.76670       -1.11080        0.57060
F         -3.29740        0.43490        1.17600
F         -2.90570       -2.20000        1.93670
F         -4.22170       -1.53800       -0.31920
C         -0.60890       -0.18450       -1.63520
Ge        -2.05980        1.25210       -1.63410
F         -2.57130        2.23370       -0.29770
F         -3.59270        0.43930       -1.89920
F         -2.00950        2.33740       -3.01340
Ge        -1.05000       -0.54890       -3.63490
F         -2.73970       -0.30060       -4.05280
F         -0.84420       -2.11320       -4.37510
F         -0.28690        0.57560       -4.74150
C         -0.02160       -2.52580        1.75860
S         -0.83820       -4.15250        1.58900
C         -0.83450       -4.54060        3.36900
H          3.35550        2.54200       -4.35680
H          1.65750        3.01150       -4.79940
H          2.70150        2.14960       -5.99250
H          2.52350        1.60970       -2.28860
H          0.92250        2.03720       -2.67940
H          0.89620       -2.74280        2.30080
H         -0.62000       -1.99220        2.49180
H          0.20790       -4.59180        3.74680
H         -1.31990       -5.52570        3.52430
H         -1.40110       -3.76930        3.93090
