36
mol18-D-0
C         -2.97500        4.67580        1.79990
S         -2.19820        3.41810        2.86530
C         -0.65440        3.23850        1.88340
C          0.37490        2.20630        2.44770
C          1.59620        2.13440        1.46120
F          1.15990        1.72930        0.20720
F          2.15670        3.39430        1.30220
C          2.68770        1.14560        1.97580
F          2.94050        0.20310        0.99130
F          3.87580        1.82790        2.19490
C         -0.23510        0.76540        2.57200
F         -0.77700        0.37760        1.35500
F         -1.26800        0.75270        3.49660
C          0.85360       -0.26350        3.01980
F          1.00330       -1.21950        2.02690
F          0.42940       -0.92740        4.16190
C          2.21910        0.45510        3.30010
C          1.96530        1.58460        4.36330
F          3.15490        2.23440        4.66170
F          1.51030        1.01930        5.54670
C          0.92180        2.62620        3.85170
F          1.50860        3.88110        3.77320
F         -0.11050        2.71980        4.77210
C          3.29640       -0.52510        3.86800
S          3.73950       -1.92520        2.76170
C          4.96310       -2.69190        3.87270
H         -2.32400        5.57090        1.72360
H         -3.94610        4.97570        2.24400
H         -3.15730        4.25590        0.78890
H         -0.96910        2.92320        0.86640
H         -0.16230        4.22570        1.75440
H          2.97020       -0.90620        4.85880
H          4.23760        0.03390        4.05450
H          5.80250       -1.98940        4.05620
H          5.36210       -3.60880        3.39280
H          4.48700       -2.97030        4.83500
