36
mol18-D-2
C         -2.71790        4.44530        0.82130
S         -1.64030        2.97620        0.79100
C         -0.77620        3.31920        2.37690
C          0.30230        2.26470        2.78690
C          1.36540        2.16900        1.63340
F          0.74300        1.77540        0.45660
F          1.92320        3.41710        1.39290
C          2.49920        1.15660        1.98500
F          2.58630        0.21080        0.97550
F          3.72060        1.81350        2.02820
C         -0.31320        0.83660        3.00030
F         -1.03430        0.46240        1.87560
F         -1.20080        0.84390        4.06530
C          0.80710       -0.21560        3.28640
F          0.79080       -1.17280        2.28350
F          0.53970       -0.87260        4.47890
C          2.21370        0.47370        3.36420
C          2.14090        1.60640        4.45170
F          3.37460        2.23060        4.57310
F          1.85100        1.04860        5.68940
C          1.05620        2.67050        4.09590
F          1.65150        3.91290        3.93130
F          0.17090        2.78400        5.15650
C          3.34130       -0.52990        3.77070
S          3.58940       -1.93690        2.61360
C          4.94520       -2.73110        3.53580
H         -3.34040        4.44720        1.73960
H         -3.38540        4.42220       -0.06420
H         -2.10210        5.36780        0.78240
H         -0.29170        4.31110        2.25750
H         -1.51290        3.44040        3.19920
H          3.15470       -0.90590        4.79890
H          4.31120        0.00890        3.81770
H          5.81690       -2.04660        3.59450
H          5.25080       -3.65520        3.00410
H          4.60830       -3.00110        4.55740
