36
mol18-C-0
C          3.92040        2.58240       -0.76090
S          2.81700        1.20980       -0.29470
C          3.51070       -0.02760       -1.46480
C          2.83510       -1.43600       -1.41660
C          3.56930       -2.37610       -2.44070
F          3.57990       -1.79180       -3.69990
F          4.89520       -2.53960       -2.06390
C          2.87920       -3.77280       -2.52230
F          3.82130       -4.77640       -2.34760
F          2.34400       -3.93510       -3.79130
C          2.94610       -2.09680       -0.00260
F          4.26660       -2.09690        0.42250
F          2.21880       -1.37090        0.92850
C          2.40460       -3.55930       -0.04230
F          1.47060       -3.73340        0.96990
F          3.44420       -4.44210        0.21550
C          1.75800       -3.89140       -1.43610
C          0.67040       -2.80200       -1.73690
F          0.02410       -3.06730       -2.93400
F         -0.29750       -2.82530       -0.74290
C          1.31700       -1.38030       -1.81280
F          0.61810       -0.52580       -0.97490
F          1.19140       -0.87570       -3.09920
C          1.14880       -5.32800       -1.36820
S          0.43430       -5.94040       -2.94130
C         -0.07750       -7.55060       -2.26290
H          3.77350        2.84220       -1.83000
H          3.67640        3.46870       -0.14030
H          4.97840        2.30140       -0.58260
H          3.38930        0.40250       -2.48130
H          4.60530       -0.13410       -1.30920
H          1.93470       -6.04690       -1.05180
H          0.34880       -5.35380       -0.59780
H         -0.80240       -7.40360       -1.43540
H          0.80800       -8.10790       -1.89250
H         -0.56400       -8.14260       -3.06480
