72
mol14-A-1
C         -1.16350        5.29850       -0.77670
S         -1.44170        3.95000        0.41640
C         -0.55410        2.66970       -0.54640
C         -0.38450        1.15080       -0.08120
C         -1.87300        0.58390        0.47460
Si        -3.40030        1.00790       -0.77080
F         -4.78650        0.12920       -0.37600
F         -3.32150        0.95750       -2.43340
F         -3.90190        2.62240       -0.63050
Si        -2.87600        1.66050        1.83470
F         -4.54500        1.36940        1.81030
F         -2.64380        1.37290        3.45420
F         -2.81020        3.33350        1.61360
C         -1.67950       -0.98710        0.97770
Si        -2.61050       -1.52010        2.69010
F         -4.22180       -1.01940        2.68370
F         -2.65560       -3.20550        2.84070
F         -2.18250       -1.02610        4.22380
Si        -2.95650       -2.22950        0.03460
F         -4.51200       -2.31690        0.69200
F         -3.43300       -1.83380       -1.50830
F         -2.52740       -3.85930        0.01430
C          0.22160        0.14040       -1.31050
Si         1.68080        1.08460       -2.37410
F          1.96690        0.48520       -3.92930
F          3.26350        1.08560       -1.84830
F          1.34120        2.69850       -2.69990
Si        -0.72580       -0.09890       -3.04260
F         -0.86560        1.28280       -3.99930
F         -2.17190       -0.89650       -3.20160
F          0.18960       -1.12630       -4.01790
C          0.53340       -1.37110       -0.65590
Si        -0.08170       -3.03570       -1.65750
F          0.82590       -3.45450       -3.02160
F          0.01930       -4.44600       -0.74830
F         -1.58760       -3.10180       -2.37100
Si         2.38700       -1.90490       -1.14020
F          3.73520       -1.02370       -0.74230
F          2.79160       -3.51250       -0.83160
F          2.55490       -1.80190       -2.81530
C         -0.02130       -1.39130        0.95400
C          0.85410       -0.30120        1.89820
Si         2.68160       -0.98130        2.40930
F          2.60700       -2.10410        3.67880
F          3.68910       -1.85780        1.41440
F          3.65220        0.25200        3.03090
Si         0.49600       -0.21650        3.86790
F         -0.63980        0.84200        4.45860
F          1.81200        0.37570        4.75560
F          0.21740       -1.70780        4.60940
C          0.73920        1.20280        1.20270
Si         0.46040        2.76790        2.44990
F          1.54700        2.71480        3.73960
F          0.77110        4.22670        1.64930
F         -0.93890        3.10260        3.29210
Si         2.55830        1.98270        0.82010
F          3.80240        0.93200        0.48500
F          3.31260        2.75370        2.12230
F          2.61390        3.19900       -0.34560
C          0.06350       -2.83770        1.62690
S          1.54810       -3.90910        1.58500
C          0.80940       -5.27840        2.53320
H         -1.60960        5.03900       -1.75930
H         -0.07600        5.48610       -0.89460
H         -1.64660        6.22150       -0.39660
H          0.42790        3.10670       -0.71530
H         -1.01200        2.71250       -1.52910
H         -0.73240       -3.47320        1.25260
H         -0.16750       -2.75620        2.68690
H          1.55560       -6.09320        2.63050
H         -0.08400       -5.67180        2.00540
H          0.52470       -4.93060        3.54790
