72
mol14-D-1
C          3.36560        3.41520        2.23180
S          1.62440        3.10740        1.79240
C          1.91900        1.47550        1.01510
C          0.77460        0.56710        0.36930
C          1.38510       -0.98740        0.13110
Si         3.19440       -1.00330       -0.75750
F          3.66850        0.02180       -1.98110
F          3.60590       -2.54730       -1.30200
F          4.43810       -0.62350        0.33190
Si         2.28910       -1.92030        1.65680
F          3.26120       -0.93440        2.62360
F          3.38750       -3.10680        1.15050
F          1.40440       -2.88590        2.67870
C          0.18030       -1.92880       -0.51790
Si        -0.00000       -3.80800        0.20250
F          1.49710       -4.58490        0.24740
F         -0.56050       -4.21870        1.71790
F         -0.97110       -4.74440       -0.82010
Si         0.75610       -2.77530       -2.25440
F          1.85970       -1.95850       -3.19190
F          1.65400       -4.20090       -2.11110
F         -0.48240       -3.28080       -3.28010
C         -0.47490        0.53420        1.53180
Si        -1.27180        2.29780        2.09570
F         -0.23130        3.62360        2.07240
F         -1.84280        2.36780        3.68580
F         -2.68880        2.78010        1.37210
Si         0.19920        0.36610        3.42930
F          1.15630       -0.86680        4.01540
F          1.06190        1.75200        3.87700
F         -1.08380        0.25520        4.51950
C         -1.64760       -0.54030        1.05290
Si        -1.99600       -1.91080        2.47250
F         -0.74240       -2.47420        3.40560
F         -2.88130       -3.25670        1.96600
F         -2.95030       -1.32140        3.74240
Si        -3.57930       -0.01640        1.29210
F         -4.49680        0.79670        0.16520
F         -3.82120        0.82440        2.73580
F         -4.58780       -1.37140        1.44960
C         -1.28730       -1.05720       -0.51200
C         -1.14880        0.27290       -1.56640
Si        -1.29000       -0.32270       -3.51000
F         -2.47170       -1.48880       -3.77420
F         -1.74840        0.87090       -4.61690
F          0.04590       -0.88250       -4.33650
Si        -2.68110        1.48260       -1.94590
F         -2.18270        2.64640       -3.06060
F         -3.33060        2.52710       -0.83250
F         -3.99960        0.77480       -2.72310
C          0.16240        1.20120       -1.08770
Si        -0.04090        3.22540       -0.97070
F         -0.06950        4.05150       -2.44610
F         -1.40830        3.91500       -0.31020
F          1.23800        3.98800       -0.19040
Si         1.32480        1.52480       -2.66860
F          0.38430        2.19450       -3.89820
F          2.01420        0.31510       -3.57070
F          2.53520        2.68090       -2.46490
C         -2.39710       -2.10910       -0.97420
S         -4.10580       -1.66030       -1.45690
C         -4.64590       -3.36330       -1.81360
H          3.99040        3.45090        1.31520
H          3.43870        4.39140        2.75300
H          3.73640        2.61840        2.90950
H          2.68300        1.67860        0.26740
H          2.46060        0.91620        1.77070
H         -2.03200       -2.69760       -1.80930
H         -2.53550       -2.85360       -0.19290
H         -4.57800       -3.98570       -0.89720
H         -5.70100       -3.34280       -2.15490
H         -4.01840       -3.80440       -2.61570
