72
mol1-C-0
C          2.20470       -4.62210        3.07450
S          1.59260       -3.99320        1.47770
C          1.03740       -2.36950        2.12230
C          0.36250       -1.27220        1.16350
C          0.05190        0.10220        2.14490
C          1.32250        0.56480        2.96130
C         -0.90150       -0.19640        3.37360
C         -0.56580        1.36880        1.29290
C         -1.91760        1.98020        1.88580
C          0.26780        2.72470        1.47810
C          1.38040       -0.89510       -0.09490
C          1.55110       -1.99030       -1.22320
C          2.89230       -0.87690        0.38940
C          0.85120        0.48390       -0.79900
C          0.92820        0.48790       -2.39300
C          1.93860        1.60960       -0.57730
C         -0.69970        0.84010       -0.25130
C         -1.69740       -0.54270       -0.30650
C         -3.17060       -0.35250        0.21270
C         -2.02570       -0.92540       -1.80100
C         -1.05180       -1.81160        0.52370
C         -1.00540       -3.12900       -0.38080
C         -1.98070       -2.47430        1.64410
C         -1.24110        2.00370       -1.21490
S         -2.88410        2.77810       -0.96550
C         -2.75640        3.92540       -2.37500
H          3.01360       -3.96720        3.45970
H          1.37560       -4.66950        3.81070
H          2.61120       -5.64370        2.92770
H          0.38620       -2.61870        2.96930
H          1.95280       -1.95920        2.57320
H          2.15090        0.96720        2.39060
H          1.70270       -0.20100        3.66420
H          1.08240        1.42090        3.62850
H         -0.80510        0.55370        4.18940
H         -0.71010       -1.14860        3.89100
H         -1.97200       -0.10310        3.16050
H         -2.13940        2.99720        1.50160
H         -2.86460        1.48320        1.77270
H         -1.82960        2.16950        2.97650
H          1.35080        2.72500        1.54230
H          0.07570        3.19890        2.46850
H         -0.01790        3.50020        0.74130
H          1.58990       -3.02310       -0.86190
H          0.84210       -1.92990       -2.04980
H          2.50620       -1.87820       -1.78560
H          3.56820       -0.45340       -0.38360
H          3.13150       -0.37720        1.32100
H          3.27690       -1.90500        0.56590
H          0.89050        1.52010       -2.81030
H          0.14920       -0.02190       -2.95190
H          1.89650        0.08740       -2.76210
H          2.80650        1.51270       -1.26940
H          1.56780        2.63210       -0.77340
H          2.47180        1.56270        0.37200
H         -3.29430       -0.38220        1.29860
H         -3.82290       -1.20490       -0.07690
H         -3.69310        0.51470       -0.20380
H         -1.20650       -1.34980       -2.37090
H         -2.78420       -1.73340       -1.87670
H         -2.47970       -0.09180       -2.36880
H         -2.03470       -3.47140       -0.62750
H         -0.60980       -3.12580       -1.38880
H         -0.56630       -4.00200        0.12450
H         -2.93010       -2.86670        1.21850
H         -1.49740       -3.35800        2.11150
H         -2.36570       -1.91240        2.47620
H         -1.28030        1.65460       -2.25780
H         -0.52150        2.83630       -1.24970
H         -3.68510        4.52890       -2.43400
H         -1.89370        4.60920       -2.23460
H         -2.63730        3.35810       -3.32140
