72
mol14-B-2
C         -3.61710       -0.98210        4.20010
S         -3.24790       -1.04180        2.41700
C         -1.73890       -0.00830        2.50940
C         -0.83730        0.38160        1.24960
C          0.19760        1.63860        1.69080
Si        -0.57050        3.26450        2.57480
F          0.55870        4.09860        3.52350
F         -1.80350        2.95900        3.68740
F         -1.05510        4.55810        1.65230
Si         1.14140        1.31350        3.44210
F          1.73200       -0.15760        3.95210
F          0.12920        1.60850        4.77090
F          2.41700        2.39530        3.67090
C          1.11270        2.05160        0.36740
Si         3.08540        1.94240        0.76770
F          4.10560        1.78820       -0.56510
F          3.75400        3.29740        1.52680
F          3.59160        0.83260        1.89740
Si         1.40810        4.02340        0.03950
F          1.89540        4.80550        1.45290
F          0.25230        5.10630       -0.48100
F          2.66480        4.25830       -1.07010
C         -1.94080        0.92000        0.06370
Si        -3.43120        2.05980        0.81370
F         -4.42550        1.14170        1.83060
F         -3.23490        3.47490        1.67290
F         -4.43680        2.62700       -0.41670
Si        -3.37810       -0.36470       -0.52560
F         -4.83820        0.34080       -1.00520
F         -3.91950       -1.45720        0.63820
F         -3.12600       -1.22920       -1.92300
C         -1.10340        1.53520       -1.23220
Si        -1.67990        3.41020       -1.64140
F         -3.15760        3.48370       -2.46700
F         -0.65700        4.26290       -2.67990
F         -2.08770        4.44030       -0.40370
Si        -1.75070        1.08830       -3.08810
F         -3.43660        1.07510       -3.17220
F         -1.26820       -0.23450       -3.97710
F         -1.30770        2.27550       -4.21610
C          0.53730        1.21530       -1.00480
C          0.79910       -0.45360       -0.78960
Si         2.75870       -0.92620       -1.08760
F          3.45560       -0.12410       -2.39050
F          3.87480       -0.77950        0.14280
F          3.07780       -2.53940       -1.48200
Si         0.38210       -1.77920       -2.21220
F         -1.15820       -2.15840       -2.69810
F          0.81220       -3.31350       -1.65910
F          1.28080       -1.63850       -3.63210
C          0.04740       -0.93460        0.62950
Si        -1.07830       -2.63320        0.63310
F         -2.01080       -2.82170        2.01910
F         -0.21860       -4.08930        0.61100
F         -2.11870       -2.97740       -0.62410
Si         1.35940       -1.93930        1.73610
F          1.99950       -3.19160        0.80500
F          0.72220       -2.76130        3.06350
F          2.80310       -1.30890        2.25600
C          1.35490        1.82350       -2.23500
S          1.38860        1.09150       -3.91340
C          2.49200        2.34820       -4.63640
H         -2.78570       -1.43650        4.77810
H         -3.77150        0.06800        4.52470
H         -4.54490       -1.55740        4.39570
H         -1.12330       -0.51400        3.25040
H         -2.06220        0.88640        3.03100
H          2.40200        1.93270       -1.97270
H          1.03770        2.85000       -2.40630
H          2.67740        2.09600       -5.70030
H          2.01680        3.34980       -4.58350
H          3.46190        2.36250       -4.09720
