36
mol19-A-0
C          3.28860       -4.93980       -2.60060
S          2.56980       -4.43300       -1.00620
C          1.48130       -3.14040       -1.72050
C          0.56070       -2.31420       -0.73310
C         -0.55330       -1.55100       -1.62840
Cl         0.11640       -0.80300       -3.13640
Cl        -1.67460       -2.72390       -2.42460
C         -1.34470       -0.48340       -0.74140
Cl        -0.87520        1.21120       -1.14910
Cl        -3.08520       -0.37720       -1.21010
C         -0.20920       -3.23700        0.34830
Cl         0.89050       -3.93100        1.60250
Cl        -0.80000       -4.78680       -0.37530
C         -1.37680       -2.38560        1.04550
Cl        -2.99030       -2.92810        0.44050
Cl        -1.59820       -2.79020        2.79540
C         -1.10760       -0.80840        0.81430
C          0.44860       -0.50800        1.15120
Cl         0.82230        1.25450        1.34100
Cl         0.86920       -1.02090        2.83250
C          1.39650       -1.19870        0.06620
Cl         2.92400       -1.81740        0.80400
Cl         2.13450        0.01180       -1.05130
C         -1.98520        0.12120        1.74740
S         -3.77110       -0.26420        1.91420
C         -4.12890        1.11120        3.05250
H          3.81500       -4.08380       -3.07180
H          4.01840       -5.75630       -2.42460
H          2.49200       -5.31100       -3.27830
H          2.13570       -2.44690       -2.28630
H          0.85120       -3.65560       -2.47300
H         -1.57430        0.10900        2.77690
H         -1.91500        1.17100        1.39780
H         -3.89650        2.08090        2.56510
H         -5.20620        1.09150        3.31550
H         -3.53100        1.00400        3.98130
