72
mol14-D-0
C          3.97890        3.07850        1.65770
S          3.29240        2.18600        0.22530
C          1.82720        1.52910        1.10600
C          0.71290        0.60370        0.43220
C          1.34650       -0.94610        0.22580
Si         3.18280       -0.94980       -0.60590
F          3.68430        0.07080       -1.82240
F          3.62710       -2.49350       -1.12480
F          4.38790       -0.54840        0.51870
Si         2.21200       -1.85740        1.78640
F          3.14320       -0.85380        2.77500
F          3.33790       -3.03620        1.32430
F          1.30580       -2.82440        2.78810
C          0.17240       -1.90510       -0.45280
Si        -0.01090       -3.78040        0.27680
F          1.49200       -4.54110        0.37460
F         -0.61420       -4.18530        1.77720
F         -0.93980       -4.73500       -0.76800
Si         0.81090       -2.75900       -2.16360
F          1.93480       -1.93790       -3.07280
F          1.71850       -4.17390       -1.98080
F         -0.38960       -3.28550       -3.22330
C         -0.57190        0.56660        1.55540
Si        -1.40420        2.32610        2.07990
F         -0.37720        3.66260        2.07830
F         -2.02530        2.40240        3.65080
F         -2.80280        2.78770        1.30860
Si         0.04430        0.42050        3.47430
F          0.99520       -0.79770        4.10000
F          0.87820        1.81880        3.93740
F         -1.27100        0.30440        4.52490
C         -1.71790       -0.52380        1.04890
Si        -2.09630       -1.88690        2.46810
F         -0.86680       -2.42980        3.44430
F         -2.95140       -3.24600        1.94510
F         -3.09600       -1.29780        3.70280
Si        -3.66150       -0.01850        1.22350
F         -4.55160        0.77600        0.06200
F         -3.95710        0.83080        2.65220
F         -4.66030       -1.38290        1.36050
C         -1.30360       -1.04900       -0.49980
C         -1.14590        0.27410       -1.56000
Si        -1.22020       -0.33800       -3.50220
F         -2.38090       -1.51850       -3.79370
F         -1.65600        0.84210       -4.63250
F          0.14670       -0.89010       -4.28210
Si        -2.67800        1.46470       -1.99690
F         -2.15710        2.62490       -3.10490
F         -3.37280        2.51080       -0.91280
F         -3.96410        0.73690       -2.80900
C          0.14010        1.22000       -1.04820
Si        -0.08770        3.24280       -0.95400
F         -0.07870        4.05700       -2.43620
F         -1.48210        3.92300       -0.34210
F          1.15830        4.02490       -0.14050
Si         1.34790        1.54350       -2.59470
F          0.43950        2.19370       -3.85850
F          2.07760        0.33420       -3.46500
F          2.53930        2.71390       -2.36270
C         -2.38750       -2.11620       -0.98780
S         -4.08480       -1.68920       -1.52710
C         -4.59590       -3.40060       -1.88670
H          4.21730        2.36530        2.47400
H          4.91150        3.59310        1.34860
H          3.25420        3.83700        2.02000
H          2.25070        1.01490        1.96640
H          1.36860        2.40710        1.54870
H         -1.99040       -2.70730       -1.80630
H         -2.54250       -2.85610       -0.20520
H         -4.55030       -4.01510       -0.96360
H         -5.63990       -3.39390       -2.26090
H         -3.93910       -3.84120       -2.66530
