72
mol14-B-0
C         -2.90200       -0.95910        4.73880
S         -1.29360       -0.97430        3.88320
C         -1.85340       -0.01500        2.42720
C         -0.91680        0.37610        1.19360
C          0.12330        1.61480        1.67300
Si        -0.64510        3.24130        2.55580
F          0.47150        4.05060        3.54030
F         -1.90840        2.94030        3.63520
F         -1.09060        4.55070        1.63590
Si         1.02020        1.25920        3.44290
F          1.57940       -0.22480        3.95110
F         -0.01990        1.55350        4.75020
F          2.30360        2.32170        3.71400
C          1.07520        2.02960        0.37660
Si         3.03620        1.89050        0.82300
F          4.08620        1.73690       -0.48660
F          3.70360        3.22860        1.61240
F          3.50060        0.76240        1.95240
Si         1.40380        4.00080        0.07710
F          1.86670        4.76160        1.51020
F          0.27480        5.10400       -0.45940
F          2.68980        4.23070       -0.99940
C         -1.98430        0.94130       -0.01250
Si        -3.47770        2.09260        0.71360
F         -4.50790        1.17710        1.69640
F         -3.28400        3.49600        1.59250
F         -4.44580        2.68580       -0.53440
Si        -3.42330       -0.31820       -0.65010
F         -4.86220        0.41140       -1.15690
F         -4.00660       -1.41560        0.48860
F         -3.14860       -1.17130       -2.05020
C         -1.10800        1.55910       -1.28120
Si        -1.65030        3.44560       -1.68400
F         -3.10660        3.54710       -2.54400
F         -0.59190        4.29560       -2.68830
F         -2.07470        4.46800       -0.44540
Si        -1.71590        1.14010       -3.15690
F         -3.39940        1.14980       -3.28160
F         -1.22910       -0.17960       -4.04820
F         -1.23060        2.33310       -4.26110
C          0.52240        1.21530       -1.01800
C          0.75760       -0.45900       -0.81450
Si         2.71750       -0.95400       -1.07050
F          3.45600       -0.14760       -2.34750
F          3.80540       -0.83490        0.18790
F          3.02540       -2.56710       -1.47450
Si         0.35800       -1.76410       -2.26100
F         -1.17480       -2.11800       -2.78770
F          0.75500       -3.30950       -1.71430
F          1.29250       -1.62030       -3.65730
C         -0.03430       -0.94500        0.58080
Si        -1.18150       -2.62860        0.53910
F         -2.14950       -2.81940        1.90010
F         -0.34020       -4.09560        0.52200
F         -2.19550       -2.94600       -0.74640
Si         1.23760       -1.97830        1.70770
F          1.88390       -3.22900        0.77890
F          0.55800       -2.80560        3.01060
F          2.67630       -1.37220        2.26900
C          1.37730        1.82560       -2.22160
S          1.44220        1.11080       -3.90650
C          2.57870        2.36050       -4.58920
H         -3.20390        0.08430        4.96660
H         -3.67560       -1.44610        4.10940
H         -2.80940       -1.52060        5.69080
H         -2.27620        0.88940        2.85960
H         -2.72990       -0.55070        2.07810
H          2.41900        1.91840       -1.93300
H          1.07760        2.85790       -2.38940
H          2.78650        2.11700       -5.65100
H          2.11530        3.36760       -4.53690
H          3.53540        2.35650       -4.02670
