72
mol1-A-2
C         -1.59920       -5.69100       -1.27470
S         -1.88580       -3.90950       -1.52620
C         -0.45900       -3.35330       -0.51590
C         -0.12800       -1.79650       -0.31810
C         -0.03230       -1.03080       -1.79070
C          0.93510       -1.77560       -2.80360
C         -1.33420       -1.13780       -2.68220
C          0.36670        0.54020       -1.54160
C          1.77510        0.85780       -2.20390
C         -0.46960        1.54860       -2.44700
C          1.29200       -1.55930        0.53610
C          1.37330       -2.55860        1.77030
C          2.63920       -2.02140       -0.14920
C          1.42370        0.03400        0.92750
C          2.86270        0.66450        0.68280
C          1.44390        0.16440        2.50270
C          0.25530        0.89900        0.09760
C         -1.25480        0.47630        0.64990
C         -2.45730        1.19080       -0.08800
C         -1.56230        1.06110        2.09230
C         -1.41080       -1.15360        0.55900
C         -2.82810       -1.61540       -0.00190
C         -1.60430       -1.76590        2.01180
C          0.47560        2.48260        0.22340
S          0.59430        3.30750        1.85770
C          0.82620        4.98800        1.19340
H         -0.60210       -5.97800       -1.66840
H         -1.66410       -5.94050       -0.19530
H         -2.37750       -6.26220       -1.82100
H          0.39540       -3.87490       -0.96620
H         -0.60070       -3.84290        0.45930
H          1.10920       -1.16860       -3.71670
H          0.48260       -2.70750       -3.20460
H          1.91800       -2.08640       -2.47170
H         -1.13040       -0.91840       -3.75510
H         -2.11550       -0.41080       -2.50190
H         -1.77050       -2.15280       -2.70500
H          1.71830        0.95040       -3.31190
H          2.22010        1.82140       -1.90680
H          2.53260        0.08840       -2.14310
H         -0.03610        2.57280       -2.44110
H         -0.44160        1.24310       -3.51530
H         -1.52440        1.70410       -2.26370
H          1.36470       -3.61740        1.43820
H          2.32310       -2.44630        2.33640
H          0.63510       -2.50040        2.55960
H          3.48680       -2.00840        0.57000
H          3.05220       -1.39400       -0.92310
H          2.64790       -3.05690       -0.50620
H          2.91470        1.71260        1.04310
H          3.65480        0.12950        1.24990
H          3.27880        0.68450       -0.31620
H          0.70340       -0.38350        3.06350
H          1.47260        1.19070        2.88390
H          2.36720       -0.27830        2.93570
H         -3.39990        1.15070        0.50410
H         -2.80990        0.73890       -1.00620
H         -2.29740        2.27290       -0.24520
H         -2.50180        0.63970        2.50730
H         -1.76760        2.15250        2.06520
H         -0.82580        0.95490        2.87890
H         -3.65620       -1.11580        0.54570
H         -3.08650       -1.45250       -1.03970
H         -3.00660       -2.70140        0.15810
H         -1.03450       -1.31850        2.81470
H         -2.62720       -1.59660        2.41720
H         -1.50340       -2.86190        2.06990
H          1.39960        2.78490       -0.28640
H         -0.32310        3.02470       -0.30480
H          1.74660        5.03190        0.57490
H         -0.05230        5.28280        0.58270
H          0.92880        5.69890        2.03850
