72
mol16-A-0
C         -2.62980       -0.50240       -5.25650
S         -2.14780       -1.40390       -3.74860
C         -1.11360       -0.06260       -3.06090
C         -0.34000       -0.17710       -1.67710
C         -1.31360       -0.73070       -0.40800
Ge        -2.20800       -2.56480       -0.47680
F         -3.15400       -2.73430        0.99190
F         -3.45560       -2.71980       -1.70240
F         -1.43660       -4.11770       -0.40980
Ge        -3.20370        0.13220       -0.50310
F         -3.85200        0.23280       -2.12810
F         -4.46340       -0.81360        0.27810
F         -3.57320        1.67360        0.22130
C         -0.45980       -0.60420        1.01640
Ge        -1.58700        0.43110        2.36770
F         -2.21070        2.04250        2.20690
F         -3.13660       -0.38560        2.48220
F         -1.02120        0.31690        4.02590
Ge        -0.48010       -2.22210        2.32350
F         -1.95230       -2.35570        3.27550
F         -0.39290       -3.87500        1.77810
F          0.71020       -2.10840        3.60470
C          0.98590       -1.18140       -1.87000
Ge         2.26360       -0.79280       -3.43020
F          3.07580       -2.26690       -3.94940
F          1.49310       -0.29740       -4.93160
F          3.69910        0.16700       -3.23790
Ge         0.52690       -2.96990       -2.78850
F         -0.94330       -3.89990       -2.67840
F          0.43850       -2.71640       -4.53110
F          1.84300       -4.12510       -2.63950
C          1.79590       -1.25920       -0.43410
Ge         3.85690       -1.15020       -0.56260
F          4.43460       -2.29620       -1.76160
F          4.87180        0.20710       -0.97430
F          4.54710       -1.69150        0.96350
Ge         1.99430       -3.20740        0.23280
F          3.41260       -4.02350       -0.40930
F          2.28840       -3.43260        1.94900
F          0.85430       -4.42850       -0.24570
C          1.12950       -0.14500        0.65930
C          1.15290        1.39240       -0.00370
Ge         0.86380        2.88550        1.38930
F          2.38600        3.19840        2.22230
F         -0.11360        2.84810        2.83200
F          0.52920        4.42860        0.61750
Ge         2.98190        2.23140       -0.41450
F          2.88700        3.98900       -0.35050
F          4.23710        1.92770        0.77920
F          3.71850        2.12990       -1.98490
C          0.17390        1.40340       -1.33240
Ge         0.91740        2.40270       -2.98310
F          2.22810        1.96420       -4.04700
F          1.47580        3.99760       -2.50510
F         -0.40410        2.69450       -4.10880
Ge        -1.30070        2.84730       -1.18970
F         -2.72860        2.62440       -2.18660
F         -0.79020        4.42560       -1.77150
F         -1.85310        3.39960        0.36250
C          2.09520       -0.18370        1.92130
S          1.68210        0.58570        3.52720
C          3.23030        0.10550        4.35870
H         -3.16330        0.43350       -4.98980
H         -3.30740       -1.14210       -5.85790
H         -1.73120       -0.26380       -5.86270
H         -1.76010        0.81060       -3.05880
H         -0.40230        0.15970       -3.85350
H          3.05450        0.25420        1.65410
H          2.35320       -1.21040        2.16570
H          3.33650       -0.99920        4.36310
H          3.20360        0.46680        5.40700
H          4.09920        0.56520        3.84360
