72
mol14-C-0
C         -5.31390        2.00050       -1.38880
S         -3.59730        2.51470       -1.05950
C         -2.98720        0.84310       -0.62620
C         -1.48130        0.51670       -0.20460
C         -1.52920       -1.07200        0.41800
Si        -2.72740       -2.31100       -0.63660
F         -2.66560       -3.88100       -0.02130
F         -4.34450       -1.82950       -0.50100
F         -2.58190       -2.65410       -2.26150
Si        -2.74460       -1.42310        1.98750
F         -4.14420       -0.48710        2.06610
F         -3.39680       -2.98090        2.07370
F         -2.07380       -1.42210        3.50860
C          0.01860       -1.59630        0.71550
Si         0.37000       -2.62490        2.41310
F          1.70420       -3.66160        2.26030
F         -0.90220       -3.67210        2.77990
F          0.79910       -1.94620        3.87180
Si         0.39300       -3.32080       -0.23360
F          2.02310       -3.75470       -0.31310
F         -0.28990       -4.66460        0.54030
F         -0.25980       -3.59850       -1.73570
C         -0.50850        0.56980       -1.58180
Si        -1.05990       -0.47330       -3.20150
F         -0.42290        0.15300       -4.64120
F         -0.52460       -2.03260       -3.40450
F         -2.71750       -0.47190       -3.52330
Si        -0.82080        2.20880       -2.71300
F         -2.22990        2.07370       -3.64790
F         -1.10860        3.73870       -2.12180
F          0.39740        2.41120       -3.86390
C          1.04960        0.20530       -1.13590
Si         2.09040       -1.01550       -2.36450
F          3.74210       -0.95670       -1.99870
F          1.81870       -2.64710       -2.57240
F          1.96040       -0.51220       -3.96970
Si         2.33540        1.65850       -1.68270
F          1.76460        3.21810       -1.75520
F          3.79810        1.70810       -0.84640
F          2.88350        1.58730       -3.28080
C          1.07120       -0.29640        0.49540
C          0.62250        1.01370        1.48650
Si         2.15740        2.34060        1.67610
F          2.41140        3.52940        0.53440
F          2.09940        3.34830        3.03290
F          3.65950        1.61140        1.87080
Si         0.63750        0.88880        3.47130
F          2.14720        0.63770        4.17920
F          0.18110        2.38320        4.10660
F         -0.42270       -0.04040        4.34590
C         -0.88170        1.56640        0.99460
Si        -0.77880        3.53330        0.71960
F         -2.25410        4.32310        0.51170
F          0.26860        4.26400       -0.33940
F         -0.18160        4.24190        2.12900
Si        -2.30660        1.95590        2.39810
F         -2.09340        3.37460        3.29350
F         -3.83980        2.20020        1.75330
F         -2.55090        0.92300        3.68450
C          2.56600       -0.79560        0.75670
S          3.26060       -1.14810        2.41420
C          4.91340       -1.63060        1.81850
H         -5.75890        1.54540       -0.47960
H         -5.90960        2.89250       -1.67090
H         -5.34090        1.27250       -2.22610
H         -3.67430        0.50110        0.14080
H         -3.26020        0.23630       -1.48690
H          2.74140       -1.71460        0.20120
H          3.27550       -0.10430        0.31390
H          4.83700       -2.51820        1.15660
H          5.54960       -1.88780        2.68980
H          5.38290       -0.78930        1.26780
