72
mol16-D-1
C          1.94690       -3.75970       -2.83400
S          2.34140       -2.62340       -1.46570
C          0.68140       -1.86230       -1.38060
C          0.29520       -0.72080       -0.34410
C          1.50610        0.43550       -0.32360
Ge         3.44030       -0.20640       -0.06830
F          4.57150        0.92050       -0.81180
F          3.85930       -1.69330       -0.90890
F          4.20460       -0.25450        1.49120
Ge         2.04750        1.08250       -2.20540
F          3.03570        2.53360       -2.12650
F          1.04630        1.25950       -3.62120
F          3.15100       -0.09100       -2.92250
C          1.10530        1.59230        0.78330
Ge         2.64890        2.24420        1.99500
F          2.16160        3.74740        2.77050
F          4.03770        2.66520        1.00590
F          3.47670        1.40780        3.28230
Ge         1.04470        3.47900       -0.06310
F          2.60600        4.28670       -0.07920
F          0.10250        4.69700        0.78000
F          0.72280        3.67980       -1.75890
C         -1.19970        0.00320       -0.66950
Ge        -2.59590       -1.42530       -1.24960
F         -1.95240       -2.63930       -2.33740
F         -3.56170       -2.31750       -0.10570
F         -3.90700       -0.78790       -2.23260
Ge        -1.54780        0.97800       -2.42940
F         -3.21140        1.53670       -2.39100
F         -1.57280       -0.06180       -3.84400
F         -0.83870        2.46720       -2.96840
C         -1.58850        1.01910        0.59150
Ge        -3.45940        0.54930        1.26030
F         -4.53540        0.61410       -0.12500
F         -4.18260        1.75940        2.30710
F         -4.00600       -0.97690        1.87920
Ge        -2.28930        2.92480        0.14050
F         -2.33790        4.00330        1.52100
F         -3.97680        2.96990       -0.35100
F         -1.63330        3.88760       -1.15550
C         -0.26990        1.10270        1.64940
C          0.00010       -0.39070        2.35690
Ge        -1.36240       -0.85080        3.83510
F         -3.04780       -0.41650        3.92990
F         -0.89190       -0.03560        5.32610
F         -1.27330       -2.54720        4.28590
Ge         1.47640       -0.52490        3.77850
F          1.58940        0.84080        4.88070
F          1.13250       -1.83100        4.90900
F          3.09640       -1.01940        3.39120
C          0.21560       -1.50520        1.15900
Ge        -1.12480       -3.07310        1.31650
F         -1.42720       -4.00790       -0.13840
F         -2.66040       -2.85110        2.09900
F         -0.56860       -4.36270        2.37380
Ge         1.75040       -2.85780        1.46090
F          3.47550       -2.60240        1.42870
F          1.54480       -4.20330        0.34470
F          1.60890       -3.56270        3.06310
C         -0.44530        2.19620        2.78960
S         -1.94720        2.34080        3.82170
C         -1.35250        3.75400        4.80550
H          2.85290       -4.34710       -3.08740
H          1.14060       -4.45900       -2.52940
H          1.62940       -3.18610       -3.72950
H          0.47660       -1.53350       -2.39560
H          0.00670       -2.70640       -1.25440
H         -0.29420        3.19190        2.38190
H          0.36500        2.09930        3.50910
H         -2.14100        4.04760        5.52800
H         -1.13370        4.61740        4.14330
H         -0.43890        3.47030        5.36830
