24
mol28-A-0
C          1.03960       -1.54960        5.87110
S          0.39730       -0.54390        4.49700
C          1.59770       -1.17730        3.28160
Si         1.30210       -0.37540        1.61970
Si        -0.75710       -0.83870        0.87850
Si        -0.99900       -0.07330       -1.20910
Si         2.78250       -1.16400        0.14310
Si         2.60310       -0.03550       -1.77970
Si         0.74840        1.21510       -1.74890
Si         0.97950        2.79130       -0.18180
Si         1.55120        1.84330        1.76180
C          0.47660        2.02790       -3.40950
S          0.28620        0.75440       -4.69850
C          0.05900        1.95130       -6.05070
H          2.10180       -1.29380        6.06730
H          0.44500       -1.33790        6.78330
H          0.95190       -2.62890        5.62770
H          2.63100       -0.94250        3.61160
H          1.48280       -2.27580        3.17250
H          1.35140        2.67130       -3.63860
H         -0.43960        2.65190       -3.35500
H         -0.08560        1.39940       -7.00190
H          0.95680        2.59740       -6.14330
H         -0.83680        2.57790       -5.85920
