108
mol2-C-2
C          2.18810       -1.70350       -4.33250
S          1.17890       -2.24800       -2.91610
C          1.21190       -0.62940       -2.02850
C          0.50700       -0.28740       -0.61780
C         -1.17440       -0.03530       -0.84810
C         -1.45540        1.28980       -1.73040
C         -2.24680        1.37360       -3.06510
C         -1.76420       -1.19590       -1.81220
C         -3.23310       -1.25440       -2.31650
C         -1.87930        0.05070        0.67710
C         -2.95460        1.26220        0.87350
C         -4.27980        1.36390        0.08600
C         -2.92630       -1.17910        0.83740
C         -3.86680       -1.40710        2.05600
C          0.78750       -1.67660        0.38130
C          0.10020       -3.07270       -0.08010
C          0.39440       -3.82380       -1.41080
C          2.34010       -2.16500        0.26780
C          2.87820       -3.45880        0.91870
C          0.26910       -1.30810        1.93890
C          1.49640       -1.20010        2.98540
C          1.74830       -2.10060        4.22660
C         -0.65470       -2.43910        2.64020
C         -0.17570       -3.87980        2.97300
C         -0.60610        0.16500        1.84850
C          0.43840        1.49450        1.47980
C          1.43720        1.89370        2.71650
C          2.13050        3.27960        2.87600
C         -0.29750        2.92050        1.31650
C         -1.05330        3.63450        2.47440
C          1.26430        1.11140        0.06360
C          1.35970        2.36900       -0.98310
C          2.36330        3.55290       -0.84860
C          2.83980        0.95680        0.37280
C          3.91240        0.72250       -0.73030
C         -1.34580        0.45430        3.25320
S         -0.64090        0.21500        4.94250
C         -2.12400        0.77210        5.84320
H          2.31620       -2.55430       -5.03230
H          3.18860       -1.37150       -3.98520
H          1.68050       -0.87360       -4.86700
H          0.90800        0.07730       -2.78500
H          2.27280       -0.45340       -1.94560
H         -0.52710        1.55180       -2.15640
H         -1.77850        2.16000       -1.17140
H         -3.34190        1.36090       -2.95680
H         -2.03860        2.35870       -3.53990
H         -1.92390        0.61770       -3.80720
H         -1.64980       -2.16660       -1.40980
H         -1.16010       -1.25600       -2.72990
H         -3.71610       -2.21020       -2.01250
H         -3.26890       -1.24300       -3.42700
H         -3.87730       -0.44900       -1.94840
H         -2.57900        2.24290        0.74770
H         -3.30840        1.29740        1.91270
H         -4.99960        0.54840        0.29120
H         -4.80940        2.28850        0.40590
H         -4.11640        1.48750       -0.98620
H         -3.67420       -1.06670        0.06350
H         -2.59480       -2.14250        0.49400
H         -4.38760       -0.49370        2.39690
H         -3.38130       -1.89520        2.92030
H         -4.66990       -2.11540        1.75570
H         -0.94570       -3.19100        0.13910
H          0.41940       -3.83390        0.61960
H          1.47000       -3.89730       -1.65530
H         -0.15330       -3.43030       -2.28600
H          0.03740       -4.87250       -1.31180
H          3.07140       -1.47000        0.58570
H          2.62170       -2.30970       -0.78400
H          2.81380       -3.43250        2.00800
H          2.44290       -4.39220        0.51300
H          3.96500       -3.53950        0.69530
H          1.32100       -0.32200        3.54220
H          2.47660       -1.07540        2.54050
H          2.18400       -3.08650        4.00390
H          2.51390       -1.61170        4.87030
H          0.85340       -2.21080        4.86930
H         -1.04610       -2.05650        3.59470
H         -1.54260       -2.64040        2.10300
H         -0.82290       -4.63510        2.47340
H         -0.26660       -4.08320        4.06150
H          0.85320       -4.10270        2.67130
H          2.30140        1.24400        2.84370
H          0.87920        1.81840        3.65350
H          1.43430        4.12060        3.04450
H          2.76460        3.25030        3.78920
H          2.81240        3.54290        2.05660
H         -0.85840        3.06610        0.41460
H          0.47300        3.65640        1.07310
H         -0.66370        3.39920        3.48210
H         -0.96020        4.73550        2.34900
H         -2.14240        3.44520        2.46660
H          1.61090        1.97990       -1.97330
H          0.43680        2.92990       -1.12060
H          3.42490        3.26450       -0.95020
H          2.18170        4.26180       -1.68600
H          2.24350        4.14750        0.06670
H          3.10150        0.35820        1.22260
H          3.17830        1.90010        0.80890
H          4.86560        1.20610       -0.42310
H          4.17250       -0.34310       -0.86640
H          3.64800        1.14780       -1.71610
H         -1.72490        1.46400        3.28050
H         -2.24260       -0.14220        3.31010
H         -1.93080        0.70430        6.93320
H         -2.99030        0.12520        5.59210
H         -2.35420        1.82670        5.58520
