132
mol22-C-0
C          5.74030       -0.00530       -1.19870
S          4.22320       -1.00130       -1.39150
C          3.02840        0.25440       -0.70910
C          1.44930        0.46090       -0.40150
C          1.36430        2.28310       -0.47810
N          1.65820        2.69260       -1.98680
C          0.85930        3.61510       -2.83700
C          3.07820        3.07130       -2.42000
N          2.45260        3.12300        0.29610
C          2.68370        4.55990       -0.05690
C          3.72460        2.71180        0.95760
C         -0.19540        2.73780        0.19100
N         -0.81930        3.86570       -0.68520
C         -2.23020        3.99890       -1.07080
C         -0.34070        5.28920       -0.61560
N         -0.10740        3.40530        1.59340
C          1.02450        3.27780        2.48990
C         -0.85640        4.62620        2.04430
C          0.35680       -0.26460       -1.65630
N          0.67190        0.08660       -3.14370
C          0.06140       -0.74690       -4.23580
C          1.96640        0.51280       -3.73690
N          0.54710       -1.84560       -1.65910
C          1.68660       -2.40150       -2.47810
C         -0.46280       -2.95420       -1.85890
C         -1.28110        0.37960       -1.25230
N         -1.89580        1.43550       -2.28210
C         -3.40540        1.55660       -2.48270
C         -1.45950        1.72780       -3.68250
N         -2.31310       -0.81100       -1.31260
C         -3.53940       -0.99440       -0.47020
C         -2.81790       -1.24290       -2.66830
C         -1.11970        1.23270        0.35970
C         -0.47090        0.20190        1.68380
N         -1.41730       -1.04470        1.82710
C         -2.40670       -1.34740        2.90340
C         -1.29540       -2.25970        1.03490
N         -0.48000        0.85630        3.11780
C         -1.50710        1.81400        3.59030
C         -0.32510        0.02460        4.36140
C          1.17090       -0.24820        1.25940
N          2.36450        0.18120        2.20670
C          3.65320       -0.61560        2.16130
C          2.37630        0.61410        3.64240
N          1.22400       -1.79320        1.40370
C          1.16360       -2.45320        2.74940
C          2.05700       -2.66750        0.58930
C         -2.63540        1.52410        0.87970
S         -3.58520        3.02490        1.44490
C         -5.15690        2.15890        1.77210
H          6.60600       -0.59420       -1.56420
H          5.66610        0.92720       -1.79540
H          5.90390        0.24200       -0.12950
H          3.53000        0.52860        0.15840
H          3.36360        1.07040       -1.24870
H          1.16460        4.67100       -2.77250
H         -0.19920        3.55300       -2.75090
H          1.05600        3.41330       -3.91000
H          3.21580        4.14880       -2.66310
H          3.38300        2.59710       -3.36650
H          3.89270        2.91640       -1.71020
H          3.74190        4.76380       -0.34400
H          2.49820        5.22960        0.80400
H          2.14010        4.91330       -0.92240
H          3.59580        2.00680        1.74680
H          4.16280        3.54680        1.55280
H          4.52530        2.42200        0.25200
H         -2.77570        3.12870       -0.89640
H         -2.30160        4.27710       -2.14240
H         -2.78650        4.78070       -0.51160
H         -1.09820        6.00400       -0.22580
H         -0.15050        5.72290       -1.60920
H          0.46810        5.46260        0.07050
H          1.50800        2.37300        2.23000
H          1.70370        4.14480        2.44450
H          0.70620        3.25110        3.54860
H         -1.77160        4.82820        1.48550
H         -0.21280        5.53080        2.05300
H         -1.16750        4.55360        3.10770
H         -0.67500       -1.44320       -3.91290
H         -0.30900       -0.12870       -5.07310
H          0.77310       -1.41340       -4.76150
H          1.81960        1.42440       -4.33810
H          2.40550       -0.18920       -4.47980
H          2.77810        0.57200       -3.06680
H          2.38230       -1.67640       -2.84000
H          2.23320       -3.21110       -1.95690
H          1.38080       -2.92480       -3.40880
H         -1.41820       -2.92430       -1.35440
H         -0.66740       -3.22940       -2.91200
H         -0.04980       -3.89290       -1.42910
H         -4.07450        1.42830       -1.64720
H         -3.67560        2.58240       -2.81510
H         -3.82030        0.96640       -3.32180
H         -0.41600        1.81830       -3.88280
H         -1.80850        2.74160       -3.98290
H         -1.92810        1.08880       -4.45390
H         -3.42190       -0.84440        0.58430
H         -4.41720       -0.40680       -0.79090
H         -3.89680       -2.04630       -0.55220
H         -3.91950       -1.13540       -2.80350
H         -2.44200       -0.67680       -3.49970
H         -2.70110       -2.31860       -2.86990
H         -1.96740       -2.00360        3.68100
H         -3.26970       -1.93350        2.51820
H         -2.90740       -0.48610        3.33470
H         -0.69260       -1.96800        0.23700
H         -2.25100       -2.69060        0.70820
H         -0.89270       -3.13340        1.57040
H         -1.13680        2.39570        4.46390
H         -1.72340        2.53780        2.89310
H         -2.46580        1.38550        3.92010
H          0.36000       -0.78430        4.30010
H         -1.26530       -0.32350        4.82820
H          0.08920        0.64140        5.19030
H          3.78300       -1.33770        2.99230
H          3.85300       -1.18180        1.26000
H          4.52890        0.06360        2.24430
H          1.66530        1.35480        3.96320
H          3.31710        1.16980        3.85670
H          2.40170       -0.22280        4.36640
H          1.31770       -3.55650        2.68960
H          0.17190       -2.43150        3.20130
H          1.91180       -2.11140        3.46430
H          2.91490       -3.11530        1.14180
H          1.45220       -3.51760        0.22040
H          2.45420       -2.11360       -0.19430
H         -3.27330        1.25420        0.10670
H         -2.89100        0.83560        1.66880
H         -5.90750        2.89520        2.12450
H         -5.01360        1.38960        2.55910
H         -5.53240        1.68130        0.84330
