24
mol28-B-2
C         -4.07380       -0.36590        2.05860
S         -2.43280       -0.73980        2.75570
C         -1.62650        0.80110        2.19540
Si         0.16690        0.82590        2.73040
Si         1.23520       -0.89740        1.78990
Si         3.43030       -0.73760        2.19040
Si         1.15310        2.71960        2.06210
Si         3.23150        2.82000        2.88190
Si         3.80050        0.83270        3.73640
Si         2.50940        0.40020        5.51080
Si         0.35830        0.64930        4.95270
C          5.60620        0.81650        4.21750
S          5.92220        2.09230        5.47900
C          7.69750        1.71730        5.62130
H         -4.74800       -1.22810        2.23820
H         -4.49970        0.53150        2.55360
H         -3.99880       -0.19090        0.96610
H         -2.14090        1.66000        2.67270
H         -1.68420        0.93190        1.09490
H          5.85820       -0.18620        4.62100
H          6.21740        1.01770        3.31330
H          7.84030        0.66800        5.95370
H          8.15190        2.39640        6.37140
H          8.20010        1.87360        4.64420
