36
mol20-B-0
C          3.18230       -4.50040        1.64650
S          1.69200       -3.75880        0.90800
C          2.43880       -2.10320        0.65300
C          1.56460       -0.95440       -0.00030
C          2.31820        0.44670        0.30780
Br         4.29040        0.37810        0.13440
Br         2.36990        0.87680        2.23310
C          1.66400        1.61750       -0.55460
Br         1.67640        3.36060        0.38650
Br         2.85810        2.23840       -1.99800
C          1.45800       -1.11490       -1.60730
Br         1.06160       -2.95050       -2.21390
Br         3.21200       -1.05560       -2.49890
C          0.43730       -0.01930       -2.19570
Br         0.94870        0.65180       -3.97990
Br        -1.23570       -0.87320       -2.80480
C          0.20980        1.15580       -1.10070
C         -0.61160        0.53340        0.14730
Br        -0.79810        1.79660        1.64530
Br        -2.55700        0.39300       -0.15220
C          0.06120       -0.85590        0.60110
Br        -0.03410       -1.17580        2.54630
Br        -1.09050       -2.38520        0.11730
C         -0.49500        2.44750       -1.68840
S         -1.94520        2.24940       -2.79350
C         -2.19980        4.03360       -3.05390
H          2.97040       -5.55890        1.90160
H          4.02390       -4.46760        0.92380
H          3.46070       -3.95720        2.57330
H          3.35170       -2.26160        0.04570
H          2.78590       -1.78130        1.65450
H          0.23880        3.03780       -2.27170
H         -0.82300        3.09940       -0.85490
H         -1.30150        4.48340       -3.52550
H         -2.40790        4.53540       -2.08600
H         -3.06900        4.17990       -3.72730
