48
mol23-D-1
C         -1.27370        4.79470        1.84020
S         -0.01800        3.48050        1.73420
C         -0.94360        2.47480        0.51000
C         -0.25160        1.13900        0.04810
C         -0.98770        0.51910       -1.20740
O         -0.84550        1.41340       -2.29510
O         -2.36420        0.37890       -0.91710
C         -0.34220       -0.89080       -1.55030
O         -1.23260       -1.92390       -1.16990
O         -0.11820       -0.96590       -2.94750
C         -0.22780        0.05530        1.21310
O         -1.54610       -0.41260        1.42270
O          0.22710        0.67460        2.40070
C          0.70500       -1.16950        0.79410
O          1.89480       -1.21480        1.56230
O          0.02870       -2.38460        1.03090
C          1.03500       -1.07780       -0.75960
C          1.93080        0.19770       -1.03330
O          2.04820        0.36040       -2.43430
O          3.22120       -0.01280       -0.49810
C          1.24790        1.47510       -0.37770
O          1.96660        1.87700        0.77310
O          1.26250        2.53500       -1.31840
C          1.72970       -2.38740       -1.28590
S          3.20020       -2.95390       -0.34660
C          3.50660       -4.40980       -1.39630
H         -1.41680        5.26760        0.84650
H         -0.92920        5.56670        2.55840
H         -2.23640        4.37520        2.19930
H         -1.12330        3.12210       -0.37480
H         -1.93430        2.24530        0.95600
H         -1.41900        1.10650       -3.04430
H         -2.83920        0.10680       -1.74450
H         -1.94280       -1.99790       -1.85970
H         -0.08710       -1.92090       -3.21620
H         -1.59760       -0.85520        2.30900
H          0.26210       -0.01300        3.11600
H          2.26400       -0.30880        1.68740
H          0.01830       -2.54050        2.01200
H          2.72230        1.06340       -2.62390
H          3.80730        0.73930       -0.77220
H          2.78580        2.35540        0.48050
H          1.19780        3.39780       -0.83170
H          2.05250       -2.23920       -2.33790
H          0.99530       -3.22100       -1.28150
H          2.63180       -5.09220       -1.36780
H          4.39590       -4.95080       -1.01340
H          3.70220       -4.09270       -2.44180
