48
mol25-A-0
C          1.83130       -4.99490        1.91780
S          2.02450       -3.18590        1.98780
C          0.54960       -2.82530        0.95740
C          0.20720       -1.29970        0.66780
C          1.21280       -0.65760       -0.42280
C          1.07420       -1.35030       -1.73040
N          0.98620       -1.88760       -2.75270
C          2.64060       -0.92760       -0.11480
N          3.75850       -1.13250        0.10810
C          0.93130        0.92850       -0.54840
C          1.06830        1.38910       -1.95380
N          1.19360        1.74580       -3.04850
C          1.99120        1.73350        0.11310
N          2.82710        2.36210        0.61080
C         -1.30090       -1.23490        0.06550
C         -1.53980       -2.29600       -0.95380
N         -1.73390       -3.12310       -1.74070
C         -2.30440       -1.61560        1.09480
N         -3.09770       -1.92170        1.88110
C         -1.59290        0.23370       -0.52710
C         -1.56150        0.21330       -2.01390
N         -1.55700        0.18630       -3.17220
C         -2.98790        0.67840       -0.26800
N         -4.07610        1.02440       -0.07630
C         -0.51700        1.27140        0.08220
C         -0.43950        1.03210        1.68770
C         -1.78770        1.12610        2.30800
N         -2.82910        1.20840        2.80830
C          0.25940        2.14940        2.38440
N          0.79460        3.01800        2.93210
C          0.25430       -0.38760        1.99860
C          1.64550       -0.19370        2.48770
N          2.72080       -0.03500        2.88860
C         -0.37160       -1.07860        3.15680
N         -0.85030       -1.61560        4.06410
C         -0.92150        2.78940       -0.16400
S         -1.45630        3.26460       -1.85370
C         -1.74710        5.01460       -1.44420
H          0.85820       -5.29280        2.36060
H          2.64920       -5.46820        2.49860
H          1.88930       -5.34500        0.86620
H         -0.31070       -3.30560        1.46860
H          0.68600       -3.36490       -0.00250
H         -1.75670        3.06300        0.51400
H         -0.07050        3.44940        0.10360
H         -2.52610        5.09880       -0.65830
H         -0.80590        5.48660       -1.09340
H         -2.09670        5.54510       -2.35350
