60
mol21-C-1
C          3.06300        3.84200        0.73400
S          1.65460        2.94280        1.45880
C          1.60210        1.63120        0.16640
C          0.48650        0.48620        0.29370
C          0.82970       -0.76460       -0.67970
N          2.05340       -1.45740       -0.20820
N          1.11500       -0.29340       -2.05270
C         -0.42150       -1.79700       -0.68580
N          0.06740       -3.19290       -0.59430
N         -1.15500       -1.68380       -1.97170
C          0.45280       -0.06960        1.82270
N          1.81620       -0.42750        2.27020
N         -0.04470        0.98060        2.74860
C         -0.51900       -1.36490        1.90720
N         -1.40640       -1.25700        3.08880
N          0.23800       -2.63230        2.08420
C         -1.40770       -1.46130        0.56320
C         -2.11120       -0.03770        0.27420
N         -2.93320        0.36320        1.44240
N         -3.04170       -0.16660       -0.86910
C         -0.97820        1.06980       -0.06190
N         -1.02150        1.47390       -1.48800
N         -1.22700        2.29820        0.72560
C         -2.47370       -2.64180        0.72530
S         -4.00600       -2.31150        1.69320
C         -4.70420       -3.97920        1.47510
H          3.95470        3.18290        0.68690
H          3.29870        4.71830        1.37180
H          2.80480        4.19940       -0.28440
H          2.61740        1.21010        0.18030
H          1.54370        2.14590       -0.80670
H          2.36350       -2.17360       -0.90210
H          2.86770       -0.81090       -0.16350
H          2.03160        0.20400       -2.06800
H          1.31120       -1.11440       -2.66820
H         -0.72310       -3.86710       -0.69270
H          0.66910       -3.40910       -1.42120
H         -2.00510       -2.28220       -1.99130
H         -0.58960       -2.06860       -2.76040
H          2.39670        0.43360        2.38520
H          1.77060       -0.84380        3.22850
H          0.12440        0.70500        3.74140
H          0.49900        1.86250        2.67760
H         -0.83170       -1.16730        3.95620
H         -1.88520       -2.16940        3.25250
H          1.14130       -2.66190        1.57760
H          0.48210       -2.78960        3.08910
H         -3.66910        1.05460        1.17040
H         -2.38860        0.80120        2.21080
H         -3.50210        0.75290       -1.05930
H         -3.82390       -0.81690       -0.63740
H         -1.80060        2.14850       -1.66670
H         -1.15560        0.68520       -2.14850
H         -2.18460        2.66330        0.51740
H         -0.58710        3.06520        0.42260
H         -2.84140       -2.99830       -0.24930
H         -1.98090       -3.51980        1.19210
H         -4.02530       -4.73820        1.91630
H         -5.68400       -4.03110        1.99260
H         -4.85690       -4.19210        0.39670
