84
mol24-E-1
C          1.54620        1.86870        4.46080
S          1.85150        1.77630        2.66820
C          0.37000        0.74500        2.29900
C          0.09470        0.31760        0.78620
C          1.27290       -0.65010        0.22780
O          1.41760       -1.72300        1.17340
C          2.51850       -2.59780        1.02890
O          2.48780        0.09360        0.03700
C          3.27880        0.35180        1.18630
C          0.83410       -1.23190       -1.20630
O          1.88660       -1.09110       -2.17960
C          3.05970       -1.86150       -2.01330
O          0.42920       -2.59800       -1.00840
C          0.48200       -3.47010       -2.12670
C         -1.31870       -0.44260        0.69290
O         -1.13150       -1.70440        1.36450
C         -2.25490       -2.55730        1.50670
O         -2.30950        0.39660        1.31260
C         -2.74860        0.08530        2.62340
C         -1.70480       -0.63890       -0.86960
O         -2.69230        0.31680       -1.30500
C         -3.98770        0.24450       -0.73340
O         -2.09670       -2.00700       -1.08110
C         -3.19000       -2.28170       -1.93980
C         -0.39930       -0.35930       -1.76520
C         -0.00000        1.21170       -1.67240
O          1.30780        1.43290       -2.22610
C          1.40950        1.51600       -3.63890
O         -1.02790        1.94680       -2.35730
C         -0.81690        3.32340       -2.59990
C          0.05270        1.64580       -0.12430
O          1.26010        2.36950        0.18200
C          1.43180        3.65420       -0.38120
O         -1.14090        2.40070        0.14940
C         -1.11390        3.30330        1.24420
C         -0.68720       -0.79140       -3.27430
S         -1.95540        0.14120       -4.23200
C         -1.76170       -0.83430       -5.75710
H          1.55560        0.85080        4.90290
H          0.56850        2.35580        4.65680
H          2.34840        2.47200        4.93310
H          0.49550       -0.14500        2.92940
H         -0.50220        1.26170        2.73510
H          2.21380       -3.51250        0.48340
H          2.81860       -2.93290        2.04250
H          3.41850       -2.14460        0.58350
H          4.31950        0.03150        0.97580
H          3.32090        1.44380        1.37130
H          2.95800       -0.15950        2.11210
H          3.83470       -1.28180       -1.47500
H          2.90240       -2.84930       -1.55440
H          3.47680       -2.06100       -3.02130
H          0.86870       -3.02750       -3.06620
H         -0.53160       -3.87630       -2.31740
H          1.12280       -4.33860       -1.87100
H         -3.20320       -2.14310        1.12750
H         -2.05040       -3.51330        0.98160
H         -2.38800       -2.80190        2.58050
H         -3.72160       -0.44450        2.57970
H         -2.93250        1.03580        3.16380
H         -2.03130       -0.49120        3.23030
H         -4.13870       -0.59010       -0.02970
H         -4.73600        0.15210       -1.54700
H         -4.20220        1.19670       -0.20530
H         -3.39210       -1.50820       -2.69870
H         -4.10240       -2.47290       -1.33960
H         -2.97330       -3.21980       -2.48990
H          0.44990        1.53770       -4.18680
H          2.02440        0.67530       -4.01770
H          1.95850        2.44450       -3.89740
H         -1.31260        3.93190       -1.81830
H         -1.32320        3.57950       -3.55270
H          0.23660        3.61750       -2.73110
H          2.01550        3.59410       -1.32040
H          0.50180        4.22610       -0.51920
H          2.04970        4.24950        0.32140
H         -1.37650        4.31640        0.87690
H         -0.14930        3.37750        1.78490
H         -1.90450        3.01970        1.96730
H          0.23840       -0.79120       -3.87530
H         -1.03050       -1.83350       -3.31340
H         -0.72230       -0.74730       -6.13630
H         -2.00390       -1.89980       -5.56230
H         -2.45810       -0.44320       -6.52670
