84
mol24-D-0
C         -2.62920       -4.46260       -0.60960
S         -1.39800       -3.62990        0.44200
C         -1.36150       -2.07330       -0.54320
C         -0.39740       -0.89270       -0.07040
C         -0.69970       -0.47090        1.46800
O         -1.96050        0.21240        1.56480
C         -3.13280       -0.58680        1.57960
O         -0.65630       -1.67620        2.24980
C         -1.08780       -1.61710        3.59450
C          0.44070        0.55060        1.96240
O         -0.12750        1.70860        2.60390
C         -0.77750        1.53400        3.84670
O          1.33330       -0.18540        2.81720
C          2.09770        0.54860        3.76100
C          1.13360       -1.36260       -0.21100
O          1.32230       -1.84600       -1.55290
C          1.35240       -3.24460       -1.77970
O          1.32880       -2.37360        0.79780
C          2.58380       -3.03080        0.84940
C          2.09780       -0.07980        0.02160
O          2.60800        0.44340       -1.22100
C          3.48450       -0.37350       -1.97880
O          3.12780       -0.43920        0.95970
C          4.44820        0.02550        0.73890
C          1.23270        1.10730        0.67470
C          0.14490        1.64670       -0.40300
O         -0.81760        2.50120        0.23680
C         -0.43190        3.84420        0.48250
O          0.87980        2.31380       -1.44260
C          0.15520        3.05440       -2.40440
C         -0.65530        0.39000       -1.01010
O         -2.07890        0.60950       -0.99170
C         -2.61400        1.60360       -1.84180
O         -0.13930        0.15200       -2.33160
C         -0.97410       -0.53340       -3.25210
C          2.20800        2.28010        1.14390
S          3.14310        3.21520       -0.13910
C          3.98770        4.31530        1.04070
H         -2.82990       -5.47340       -0.19960
H         -2.24060       -4.56600       -1.64410
H         -3.57660       -3.88450       -0.61900
H         -1.09490       -2.40030       -1.55660
H         -2.40440       -1.72540       -0.63940
H         -3.74170       -0.37100        0.67910
H         -2.96720       -1.67710        1.65130
H         -3.75020       -0.28870        2.45160
H         -0.21980       -1.49620        4.27200
H         -1.86720       -0.86650        3.80130
H         -1.53810       -2.59840        3.84780
H         -0.66050        2.47460        4.42230
H         -1.86750        1.40180        3.70210
H         -0.35480        0.74080        4.48160
H          1.89180        0.14820        4.77470
H          3.17520        0.37280        3.56960
H          1.91560        1.64150        3.78410
H          0.82270       -3.85000       -1.02600
H          2.40190       -3.58890       -1.87470
H          0.86490       -3.44970       -2.75410
H          3.29440       -2.73740        0.05950
H          2.42040       -4.12580        0.77960
H          3.05180       -2.83740        1.83680
H          4.42480        0.18420       -2.16660
H          3.74290       -1.33690       -1.51000
H          3.02530       -0.57320       -2.96920
H          4.52370        0.94500        0.13570
H          5.06010       -0.77920        0.28350
H          4.90700        0.25050        1.72290
H          0.53070        4.15430        0.03710
H         -1.21560        4.51500        0.07500
H         -0.40200        4.02880        1.57500
H          0.78730        3.90990       -2.71780
H         -0.00760        2.44580       -3.31540
H         -0.78710        3.49430       -2.04070
H         -3.64310        1.29380       -2.11540
H         -2.07850        1.73420       -2.79420
H         -2.72140        2.56390       -1.30050
H         -1.10170        0.09760       -4.15530
H         -0.46170       -1.45730       -3.58750
H         -1.98290       -0.80280       -2.88070
H          2.98500        1.88540        1.81160
H          1.67460        3.02240        1.76240
H          3.24230        4.90790        1.61070
H          4.61020        3.71960        1.74010
H          4.64480        5.01050        0.47930
