156
mol26-D-1
C          3.77340       -1.53540        4.37640
S          3.39230        0.02120        3.50580
C          2.09740       -0.68670        2.38000
C          1.16700       -0.04140        1.21860
C         -0.46810        0.02730        1.88580
C         -0.65530        0.87650        3.29050
C          0.36790        1.15460        4.25120
C          0.14280        1.75920        5.49300
C         -1.13620        2.07550        5.89770
C         -2.19300        1.74560        5.07710
C         -1.96390        1.13650        3.84060
C         -0.93400       -1.41630        2.57570
C         -1.70290       -2.45010        1.96870
C         -2.10650       -3.63610        2.59190
C         -1.75400       -3.89490        3.89790
C         -1.02030       -2.95320        4.58460
C         -0.63680       -1.76230        3.96170
C         -1.47270        0.68640        0.60880
C         -2.28940        2.00800        1.08370
C         -1.64770        2.97550        1.82510
C         -2.26030        4.07540        2.43630
C         -3.61970        4.27660        2.27180
C         -4.34450        3.37190        1.51200
C         -3.70840        2.26320        0.94080
C         -2.78910       -0.23570        0.32830
C         -3.41980       -0.41050       -0.93950
C         -4.68710       -0.97490       -1.12160
C         -5.44280       -1.36910       -0.03660
C         -4.93320       -1.18820        1.23230
C         -3.67140       -0.61520        1.41030
C          1.19540       -1.12140       -0.18360
C          2.72700       -1.39060       -0.65320
C          3.39350       -0.43210       -1.38450
C          4.64450       -0.59210       -1.99110
C          5.33130       -1.78310       -1.83250
C          4.75370       -2.79590       -1.08320
C          3.48590       -2.61710       -0.51640
C          0.82190       -2.68680        0.08480
C          0.88510       -3.34610        1.34850
C          0.82470       -4.73340        1.52100
C          0.73980       -5.57370        0.42990
C          0.72660       -5.02470       -0.83540
C          0.79740       -3.63950       -1.00370
C          0.21870       -0.42140       -1.46030
C          1.08360       -0.27280       -2.86000
C          0.96880        0.78690       -3.81470
C          1.61940        0.80850       -5.05330
C          2.38710       -0.26100       -5.46150
C          2.46630       -1.37020       -4.64760
C          1.81000       -1.38990       -3.41420
C         -0.94780       -1.38180       -2.16140
C         -1.62890       -2.47840       -1.56170
C         -2.57820       -3.28960       -2.19270
C         -2.94110       -3.05360       -3.50040
C         -2.33320       -2.02130       -4.18010
C         -1.37170       -1.22720       -3.54890
C         -0.45170        1.06800       -0.78620
C          0.87850        2.25520       -0.46830
C          1.71860        2.69300       -1.87540
C          1.13180        3.64130       -2.83260
C          1.74810        4.09860       -3.99960
C          3.04920        3.75430       -4.27810
C          3.74930        3.02100       -3.34840
C          3.13360        2.57930       -2.17080
C          0.46140        3.80570       -0.21420
C         -0.84040        4.35300       -0.36010
C         -1.14730        5.70770       -0.18810
C         -0.13990        6.63020        0.02560
C          1.17380        6.20560       -0.03050
C          1.46160        4.85080       -0.21530
C          1.78140        1.63500        0.91490
C          1.87220        2.56780        2.32900
C          2.96560        2.36560        3.28990
C          3.15810        3.09930        4.46270
C          2.35730        4.18020        4.74460
C          1.42190        4.56680        3.81300
C          1.24350        3.83950        2.62990
C          3.37770        1.82110        0.66970
C          4.36590        0.81210        0.81320
C          5.73910        1.02790        0.64910
C          6.22580        2.30590        0.44610
C          5.34620        3.36980        0.50540
C          3.97990        3.13620        0.68220
C         -1.38900        1.70200       -1.94820
S         -3.11540        2.38380       -1.95280
C         -3.15960        2.80490       -3.72670
H          2.86480       -1.92560        4.88040
H          4.15970       -2.28980        3.65960
H          4.55110       -1.33880        5.14220
H          1.46980       -1.08680        3.11500
H          2.62270       -1.53840        2.00610
H          1.35350        0.81250        4.17640
H          0.97090        1.93700        6.16790
H         -1.31020        2.54130        6.85910
H         -3.20420        1.97560        5.38960
H         -2.85920        1.04310        3.29080
H         -2.12020       -2.36130        1.04100
H         -2.70880       -4.35490        2.04970
H         -2.05930       -4.81490        4.37940
H         -0.74400       -3.14020        5.61510
H         -0.07410       -1.15070        4.63280
H         -0.64750        2.78340        1.91630
H         -1.67640        4.76950        3.02560
H         -4.10780        5.12870        2.72630
H         -5.40730        3.52050        1.36910
H         -4.37260        1.63560        0.37190
H         -2.98290       -0.14100       -1.85300
H         -5.08630       -1.09590       -2.12120
H         -6.42100       -1.80980       -0.17860
H         -5.51260       -1.50140        2.09190
H         -3.36710       -0.62740        2.42380
H          2.84680        0.42750       -1.47180
H          5.07740        0.21090       -2.57240
H          6.30550       -1.91970       -2.28350
H          5.28250       -3.73050       -0.94510
H          3.14450       -3.47010        0.04440
H          0.97190       -2.84700        2.26570
H          0.85460       -5.15570        2.51800
H          0.68850       -6.64630        0.56460
H          0.65170       -5.67290       -1.69960
H          0.67960       -3.35420       -2.01600
H          0.28690        1.57630       -3.73810
H          1.48220        1.64800       -5.72360
H          2.88840       -0.24490       -6.42050
H          3.05420       -2.22350       -4.96310
H          2.04990       -2.26050       -2.86910
H         -1.39750       -2.83180       -0.63250
H         -3.02750       -4.11590       -1.65520
H         -3.68050       -3.67550       -3.98810
H         -2.60350       -1.82980       -5.21130
H         -1.00770       -0.47490       -4.21440
H          0.19740        4.15050       -2.68180
H          1.21710        4.76310       -4.67010
H          3.53370        4.11100       -5.17790
H          4.80110        2.82260       -3.51850
H          3.88070        2.14310       -1.56830
H         -1.67090        3.75920       -0.53960
H         -2.17730        6.03870       -0.23280
H         -0.37360        7.67970        0.14910
H          1.97480        6.93380       -0.01210
H          2.45610        4.67640       -0.56280
H          3.78420        1.68600        3.13830
H          3.96850        2.84640        5.13520
H          2.50630        4.75630        5.64870
H          0.84900        5.47030        3.98650
H          0.56510        4.37690        2.02800
H          4.11980       -0.18020        0.98480
H          6.42670        0.19230        0.69130
H          7.28800        2.47680        0.32870
H          5.72750        4.38310        0.49540
H          3.44930        3.99390        1.03310
H         -0.90150        2.54170       -2.33740
H         -1.45020        1.03660       -2.78200
H         -4.14140        3.26280       -3.96390
H         -3.03460        1.88850       -4.34050
H         -2.35710        3.53240       -3.96850
