72
mol29-B-1
C          4.79130       -3.21900        0.38720
S          3.52190       -3.31460        1.68730
C          2.07830       -3.25040        0.57120
Si         0.43480       -3.32330        1.49050
Si        -1.05460       -1.70570        0.96160
C         -1.31070       -1.56400       -0.88500
C         -0.50190       -0.02900        1.56660
Si        -3.02220       -2.18150        1.91750
C         -3.72310       -0.65440        2.73290
C         -4.24190       -2.69130        0.60100
Si        -0.50130       -5.31230        1.00010
C          0.75930       -6.68040        1.17510
C         -1.08010       -5.34530       -0.77260
Si        -2.23770       -5.71610        2.35530
C         -3.70070       -6.33540        1.37480
C         -1.76100       -7.08420        3.53280
Si        -2.77720       -3.81840        3.43170
Si        -1.11410       -3.25480        4.83170
C         -1.01240       -4.43110        6.27870
C         -1.40120       -1.55320        5.53880
Si         0.82410       -3.27330        3.71040
C          1.83060       -1.78120        4.20200
C          1.81570       -4.76500        4.23120
C         -4.41040       -3.97340        4.33060
S         -4.36330       -5.34460        5.52610
C         -6.07170       -5.09390        6.09990
H          5.79270       -3.20160        0.86330
H          4.66370       -2.29350       -0.21150
H          4.72750       -4.10760       -0.26810
H          2.11200       -4.05270       -0.19410
H          2.12380       -2.28180        0.03430
H         -0.38440       -1.20190       -1.37160
H         -2.12610       -0.83840       -1.08220
H         -1.58900       -2.54390       -1.31280
H          0.49290        0.21610        1.14750
H         -1.23300        0.73540        1.23320
H         -0.45740       -0.02200        2.67050
H         -4.67700       -0.91080        3.23690
H         -3.01030       -0.25260        3.47600
H         -3.91230        0.11780        1.95950
H         -3.76830       -3.40980       -0.09260
H         -4.55490       -1.79580        0.02640
H         -5.13070       -3.15440        1.07590
H          1.62470       -6.47610        0.51290
H          0.29420       -7.64370        0.88180
H          1.10730       -6.75280        2.22160
H         -0.29440       -4.91650       -1.42790
H         -1.27970       -6.39430       -1.07230
H         -2.01460       -4.76400       -0.87440
H         -4.56100       -6.48860        2.05820
H         -3.43630       -7.29870        0.89310
H         -3.97870       -5.60510        0.59310
H         -0.82360       -6.82420        4.05550
H         -1.59980       -8.01770        2.95610
H         -2.56920       -7.25110        4.27100
H         -1.91020       -4.30890        6.91740
H         -0.95300       -5.47610        5.92270
H         -0.10800       -4.19620        6.87620
H         -0.72820       -1.39990        6.40690
H         -1.17590       -0.78630        4.77510
H         -2.45650       -1.46110        5.86800
H          2.85120       -1.87250        3.77870
H          1.90170       -1.73920        5.30810
H          1.35270       -0.85460        3.83380
H          2.65200       -4.92280        3.52000
H          1.16740       -5.65910        4.25430
H          2.22340       -4.59560        5.24860
H         -4.61320       -3.01940        4.85990
H         -5.20790       -4.15680        3.58120
H         -6.78020       -5.21860        5.25470
H         -6.18240       -4.07960        6.53690
H         -6.30590       -5.84800        6.87910
