108
mol2-A-1
C          5.78930        1.53760       -0.07940
S          4.09940        2.06570       -0.51710
C          3.25520        0.55560        0.08190
C          1.66770        0.23410        0.04770
C          1.36820       -1.32340        0.70910
C          1.96230       -1.46570        2.22590
C          2.44000       -2.79350        2.87960
C          2.33450       -2.40220        0.00130
C          2.12700       -3.92660        0.08040
C         -0.29720       -1.61290        0.62780
C         -0.63470       -2.77910       -0.42420
C         -0.94880       -4.27830       -0.10330
C         -0.82260       -2.26260        2.01220
C         -2.27230       -2.74450        2.23040
C          1.04860        0.36950       -1.55840
C          1.58700        1.71940       -2.30970
C          1.56610        1.93700       -3.85720
C          1.57970       -0.73690       -2.61870
C          3.01400       -0.79090       -3.21130
C         -0.63900        0.28050       -1.45900
C         -1.31840        1.64780       -1.98400
C         -2.85410        1.80990       -2.15200
C         -1.26040       -0.72970       -2.59130
C         -1.45460       -0.32600       -4.08730
C         -1.06650       -0.15970        0.16070
C         -0.65750        1.08670        1.26600
C         -0.95200        0.70960        2.81500
C         -1.19720        1.78140        3.92690
C         -1.62690        2.38700        1.13250
C         -3.07900        2.42410        1.70570
C          0.97350        1.44970        1.05460
C          1.75130        1.65830        2.47570
C          3.13820        2.35820        2.58830
C          1.13810        2.94260        0.45200
C          1.14260        4.23840        1.32710
C         -2.66770       -0.29430        0.28530
S         -3.79110       -1.53430       -0.49920
C         -5.32890       -0.87310        0.22210
H          6.50400        2.32970       -0.38270
H          5.87060        1.38420        1.01660
H          6.04920        0.59880       -0.61120
H          3.67980        0.40780        1.07440
H          3.77920       -0.17170       -0.51500
H          2.87590       -0.87760        2.32840
H          1.31050       -1.11350        2.98760
H          3.32220       -3.23960        2.38070
H          2.79050       -2.56680        3.91100
H          1.65280       -3.55190        3.01500
H          3.34610       -2.27810        0.42660
H          2.59480       -2.20040       -1.00760
H          1.70720       -4.32450       -0.86430
H          1.52210       -4.23720        0.93740
H          3.11000       -4.43570        0.18640
H         -1.54170       -2.52080       -0.93610
H          0.12910       -2.82370       -1.18270
H         -2.04070       -4.47930       -0.12220
H         -0.55870       -4.69360        0.83760
H         -0.54980       -4.91860       -0.91900
H         -0.21460       -3.15350        2.17740
H         -0.60050       -1.76120        2.93970
H         -2.26230       -3.62520        2.90880
H         -2.88680       -1.98740        2.75500
H         -2.78640       -3.06710        1.32350
H          2.64830        1.86420       -2.07190
H          1.11610        2.63630       -1.99780
H          2.01500        1.14270       -4.47140
H          2.17670        2.83930       -4.07970
H          0.57820        2.17240       -4.28030
H          1.01590       -0.58180       -3.53630
H          1.28640       -1.75890       -2.43190
H          2.96730       -0.99450       -4.30480
H          3.58670        0.14680       -3.10380
H          3.59300       -1.65260       -2.82840
H         -0.97230        1.80620       -2.99940
H         -0.93180        2.58370       -1.63150
H         -3.07170        2.38080       -3.08150
H         -3.40890        0.85900       -2.23150
H         -3.29770        2.41720       -1.34340
H         -2.26840       -1.00510       -2.33220
H         -0.75930       -1.68830       -2.68370
H         -0.62280        0.24510       -4.53030
H         -1.57620       -1.24370       -4.70340
H         -2.38290        0.25870       -4.24160
H         -1.80350        0.03580        2.93020
H         -0.14050        0.17380        3.23600
H         -0.87470        2.80790        3.68410
H         -0.65950        1.49640        4.85850
H         -2.26870        1.82090        4.21310
H         -1.73580        2.78980        0.15180
H         -1.15210        3.23440        1.62530
H         -3.39920        1.51640        2.24180
H         -3.19000        3.27390        2.41420
H         -3.82150        2.61020        0.90210
H          1.84090        0.81270        3.13470
H          1.12190        2.28270        3.10980
H          3.52150        2.78350        1.64540
H          3.09330        3.18830        3.32720
H          3.90140        1.65120        2.98060
H          0.33750        3.15520       -0.22100
H          2.05960        3.05190       -0.12800
H          0.62660        4.16870        2.29960
H          0.64920        5.06580        0.77070
H          2.17450        4.59820        1.51380
H         -2.94980       -0.38220        1.32450
H         -3.10740        0.64280       -0.01850
H         -5.48630        0.17510       -0.10690
H         -6.18380       -1.48910       -0.12420
H         -5.28190       -0.91670        1.33010
