132
mol22-C-2
C          5.71230       -0.08260       -1.29750
S          4.68760        0.24710        0.17630
C          3.03650        0.27400       -0.68590
C          1.45550        0.47540       -0.38440
C          1.36610        2.29760       -0.45570
N          1.66540        2.71260       -1.96190
C          0.86780        3.63570       -2.81270
C          3.08630        3.09630       -2.38770
N          2.44880        3.13790        0.32580
C          2.67770        4.57650       -0.02170
C          3.71910        2.72800        0.99150
C         -0.19770        2.74620        0.20800
N         -0.82080        3.87520       -0.66730
C         -2.23030        4.00590       -1.05860
C         -0.34610        5.29970       -0.59120
N         -0.11750        3.40950        1.61280
C          1.01080        3.28220        2.51390
C         -0.87160        4.62700        2.06430
C          0.37030       -0.24900       -1.64620
N          0.69100        0.10770       -3.13120
C          0.08740       -0.72400       -4.22850
C          1.98690        0.53910       -3.71740
N          0.56470       -1.82950       -1.65320
C          1.70930       -2.37980       -2.46890
C         -0.44140       -2.94010       -1.86070
C         -1.27090        0.38970       -1.24730
N         -1.88390        1.44720       -2.27650
C         -3.39300        1.56500       -2.48320
C         -1.44240        1.74500       -3.67400
N         -2.29960       -0.80340       -1.31570
C         -3.52910       -0.99270       -0.47920
C         -2.79740       -1.23240       -2.67500
C         -1.11880        1.23810        0.36800
C         -0.47300        0.20490        1.69180
N         -1.41670       -1.04460        1.82700
C         -2.41000       -1.35330        2.89810
C         -1.28830       -2.25680        1.03160
N         -0.48990        0.85480        3.12770
C         -1.52160        1.80830        3.59880
C         -0.33830        0.01960        4.36930
C          1.17180       -0.23960        1.27300
N          2.36020        0.18990        2.22680
C          3.65120       -0.60340        2.18450
C          2.36470        0.61840        3.66390
N          1.22830       -1.78490        1.41270
C          1.16380       -2.44930        2.75610
C          2.06710       -2.65450        0.59920
C         -2.63750        1.52400        0.88240
S         -3.59360        3.02050        1.44820
C         -5.16440        2.14940        1.76580
H          6.77620       -0.14080       -0.99000
H          5.42150       -1.04870       -1.75930
H          5.59930        0.73840       -2.03520
H          3.26000        0.89860       -1.48530
H          3.15440       -0.59390       -1.23560
H          1.17010        4.69220       -2.74350
H         -0.19090        3.57060       -2.73130
H          1.06970        3.43780       -3.88540
H          3.22210        4.17490       -2.62690
H          3.39640        2.62590       -3.33440
H          3.89810        2.94130       -1.67490
H          3.73660        4.78410       -0.30370
H          2.48670        5.24300        0.84040
H          2.13700        4.93120       -0.88850
H          3.58870        2.02020        1.77790
H          4.15250        3.56230        1.59120
H          4.52350        2.44240        0.28840
H         -2.77420        3.13380       -0.88930
H         -2.29780        4.28730       -2.12960
H         -2.79110        4.78450       -0.49940
H         -1.10720        6.01130       -0.20250
H         -0.15280        5.73690       -1.58270
H          0.45920        5.47300        0.09890
H          1.49790        2.37940        2.25320
H          1.68800        4.15100        2.47410
H          0.68810        3.25130        3.57110
H         -1.78490        4.82840        1.50220
H         -0.23040        5.53330        2.07870
H         -1.18710        4.55030        3.12610
H         -0.64860       -1.42330       -3.91090
H         -0.28100       -0.10420       -5.06540
H          0.80310       -1.38700       -4.75320
H          1.84030        1.45220       -4.31640
H          2.43100       -0.15940       -4.46060
H          2.79550        0.59830       -3.04360
H          2.40460       -1.65180       -2.82550
H          2.25570       -3.18970       -1.94780
H          1.40880       -2.90100       -3.40260
H         -1.39900       -2.91430       -1.36030
H         -0.64070       -3.21250       -2.91560
H         -0.02780       -3.87900       -1.43210
H         -4.06540        1.43230       -1.65100
H         -3.66440        2.59110       -2.81360
H         -3.80270        0.97630       -3.32590
H         -0.39830        1.83880       -3.86960
H         -1.79280        2.75890       -3.97280
H         -1.90590        1.10720       -4.44940
H         -3.41650       -0.84560        0.57620
H         -4.40690       -0.40630       -0.80190
H         -3.88330       -2.04520       -0.56610
H         -3.89870       -1.12730       -2.81460
H         -2.41940       -0.66270       -3.50300
H         -2.67690       -2.30720       -2.87940
H         -1.97230       -2.01070        3.67550
H         -3.26980       -1.94040        2.50730
H         -2.91480       -0.49460        3.32990
H         -0.68280       -1.96100        0.23720
H         -2.24130       -2.68920        0.69940
H         -0.88560       -3.13110        1.56610
H         -1.15660        2.38830        4.47570
H         -1.73680        2.53370        2.90290
H         -2.48060        1.37630        3.92300
H          0.34920       -0.78740        4.30850
H         -1.27960       -0.33240        4.83100
H          0.07080        0.63490        5.20200
H          3.77920       -1.32770        3.01380
H          3.85630       -1.16620        1.28240
H          4.52470        0.07790        2.27340
H          1.65030        1.35620        3.98390
H          3.30300        1.17580        3.88400
H          2.38910       -0.22070        4.38540
H          1.32100       -3.55200        2.69350
H          0.17010       -2.43150        3.20380
H          1.90810       -2.10770        3.47530
H          2.92380       -3.10170        1.15410
H          1.46610       -3.50500        0.22510
H          2.46630       -2.09710       -0.18090
H         -3.27130        1.25490        0.10580
H         -2.89460        0.83240        1.66820
H         -5.91850        2.88260        2.11730
H         -5.02260        1.37800        2.55100
H         -5.53470        1.67380        0.83400
