132
mol22-D-1
C          2.31840       -5.10770        1.48700
S          0.73950       -4.22970        1.73490
C          1.23550       -2.64460        0.88640
C          0.65120       -1.18770        0.50940
C         -0.39010       -1.57520       -0.96220
N          0.28310       -2.17440       -2.23400
C          1.69500       -2.43780       -2.30870
C         -0.32920       -3.17120       -3.18340
N         -1.33520       -2.78090       -0.54190
C         -2.79310       -2.99080       -0.81140
C         -0.79960       -4.20180       -0.58010
C         -1.16170       -0.05310       -1.43490
N         -0.78360        0.52420       -2.87030
C         -1.69300        1.51630       -3.57810
C         -0.16990       -0.21000       -4.01260
N         -2.70320       -0.33210       -1.60820
C         -3.96050        0.46980       -1.34510
C         -3.04540       -1.03600       -2.88800
C          1.98830        0.05090        0.31650
N          3.31650       -0.43270       -0.39420
C          4.49630        0.48060       -0.44550
C          3.99370       -1.77910       -0.37230
N          2.50740        0.53580        1.72440
C          3.65890       -0.20300        2.33830
C          2.89350        1.94560        2.09630
C          1.23840        1.34770       -0.59670
N          1.51870        1.29800       -2.15530
C          1.35920        2.57070       -2.96260
C          2.68940        0.67780       -2.87250
N          1.87400        2.71390       -0.18920
C          3.09170        3.31830       -0.82140
C          1.08970        3.88370        0.18910
C         -0.55160        1.17750       -0.25550
C         -0.92750        0.90280        1.51490
N         -0.09440        1.89480        2.42390
C         -0.71320        3.21840        2.78470
C          0.57780        1.56640        3.73290
N         -2.40520        1.15070        1.98750
C         -3.44860        1.95430        1.32560
C         -2.76000        1.31310        3.43530
C         -0.52100       -0.76570        1.79910
N         -1.71340       -1.76780        1.70330
C         -1.73120       -3.06700        2.46360
C         -3.12120       -1.35360        1.67670
N         -0.08740       -0.92160        3.28310
C          1.10010       -1.64390        3.71010
C         -1.05630       -1.13290        4.40650
C         -1.25960        2.50920       -0.82420
S         -1.91900        4.13680       -0.20020
C         -2.46840        4.77530       -1.81750
H          2.24870       -6.11180        1.95260
H          2.52110       -5.23100        0.40310
H          3.14830       -4.54900        1.96670
H          2.09670       -2.46410        1.45520
H          1.60200       -3.04210       -0.02290
H          2.06450       -1.72950       -1.67460
H          2.10070       -2.28380       -3.33180
H          1.97800       -3.47300       -2.02200
H         -1.36740       -3.43000       -3.02390
H         -0.20450       -2.85360       -4.23490
H          0.17950       -4.16170       -3.16010
H         -3.47010       -2.17290       -0.62290
H         -3.01150       -3.42500       -1.80090
H         -3.19740       -3.76350       -0.12220
H         -1.38900       -4.88470       -1.23560
H         -0.83530       -4.69170        0.40650
H          0.20570       -4.34600       -0.97270
H         -1.92260        1.25320       -4.63820
H         -1.26170        2.52720       -3.64400
H         -2.69290        1.63520       -3.19110
H          0.16890        0.49560       -4.80270
H         -0.88140       -0.84490       -4.56480
H          0.77060       -0.67380       -3.80900
H         -4.42870        0.27910       -0.38060
H         -3.98370        1.53150       -1.61870
H         -4.83470        0.13180       -1.94990
H         -3.93340       -1.69440       -2.77640
H         -2.25530       -1.64670       -3.24640
H         -3.34410       -0.36040       -3.71080
H          5.38210        0.12130        0.12350
H          4.90350        0.56880       -1.46710
H          4.33300        1.42890       -0.01800
H          4.73920       -1.91960        0.43580
H          4.58590       -1.88660       -1.30950
H          3.39270       -2.66710       -0.41850
H          3.71040       -1.23750        2.07870
H          4.65390        0.24160        2.13350
H          3.57970       -0.18470        3.44850
H          3.17550        2.01320        3.17260
H          2.09810        2.67360        2.07140
H          3.80830        2.34390        1.65020
H          0.95660        3.45120       -2.47460
H          0.82890        2.38530       -3.90640
H          2.31890        2.99380       -3.33740
H          2.46510        0.57900       -3.95580
H          3.01200       -0.30680       -2.63170
H          3.58960        1.30400       -2.93940
H          3.78500        3.69860       -0.04470
H          3.65360        2.67900       -1.47910
H          2.86620        4.21420       -1.44390
H          1.66650        4.55280        0.86720
H          0.28130        3.55170        0.73870
H          0.75930        4.50300       -0.66650
H          0.05290        4.02420        2.77990
H         -1.52680        3.51680        2.15340
H         -1.11020        3.27820        3.82250
H          1.33940        0.80540        3.70400
H          1.16630        2.43740        4.10380
H         -0.07520        1.40340        4.59260
H         -3.54320        2.99000        1.71260
H         -4.44290        1.48600        1.49570
H         -3.33170        2.03930        0.30020
H         -3.65890        0.73060        3.71310
H         -1.98100        1.09370        4.12470
H         -3.06100        2.34850        3.70790
H         -0.78160       -3.41160        2.87460
H         -2.43710       -3.05260        3.32340
H         -2.14720       -3.87690        1.84620
H         -3.51120       -1.02140        2.63530
H         -3.81140       -2.19910        1.47230
H         -3.24560       -0.65740        0.88540
H          1.47150       -1.25720        4.68570
H          1.84260       -1.43950        3.02380
H          0.94610       -2.73150        3.83510
H         -2.10080       -1.00430        4.14800
H         -0.81660       -0.47970        5.26760
H         -1.00130       -2.15620        4.84320
H         -0.68110        2.82760       -1.63500
H         -2.12750        2.19120       -1.30430
H         -2.92690        5.77470       -1.67320
H         -1.60170        4.87590       -2.50320
H         -3.22490        4.09600       -2.26170
