48
mol23-D-2
C         -1.78240        4.93210        0.85670
S         -1.08870        3.77320       -0.36430
C         -0.77760        2.43190        0.84850
C         -0.14060        1.11310        0.27260
C         -0.90820        0.62650       -1.02230
O         -0.73860        1.60090       -2.03460
O         -2.28710        0.51520       -0.73120
C         -0.31960       -0.77400       -1.48520
O         -1.24670       -1.80030       -1.18190
O         -0.10780       -0.74280       -2.88600
C         -0.15120       -0.06240        1.34490
O         -1.48510       -0.49560        1.52830
O          0.33490        0.43980        2.57480
C          0.73100       -1.28320        0.81850
O          1.92320       -1.43640        1.56900
O          0.00990       -2.48720        0.96180
C          1.05440       -1.07710       -0.72560
C          1.99690        0.18160       -0.90290
O          2.11140        0.45400       -2.28700
O          3.28170       -0.12080       -0.39900
C          1.36800        1.42600       -0.13870
O          2.10900        1.70470        1.03410
O          1.41730        2.55800       -0.98990
C          1.69470       -2.36470       -1.36360
S          3.14830       -3.06150       -0.48790
C          3.39150       -4.43710       -1.65570
H         -2.68810        4.49550        1.32630
H         -2.06370        5.87360        0.34210
H         -1.02750        5.16180        1.63720
H         -1.75110        2.19270        1.32720
H         -0.11740        2.84980        1.63750
H         -1.32830        1.37830       -2.80090
H         -2.77760        0.33010       -1.57350
H         -1.96370       -1.79060       -1.86860
H         -0.11520       -1.67310       -3.23200
H         -1.54790       -1.00710        2.37590
H          0.34800       -0.30490        3.23120
H          2.32780       -0.55830        1.76420
H         -0.00010       -2.72250        1.92690
H          2.81090        1.14410       -2.42500
H          3.89450        0.62850       -0.61640
H          2.94420        2.17410        0.77380
H          1.38910        3.37990       -0.43380
H          2.01620       -2.14310       -2.40310
H          0.92870       -3.16740       -1.42030
H          2.49130       -5.08590       -1.67460
H          4.26180       -5.04090       -1.32680
H          3.59250       -4.04310       -2.67370
