156
mol26-C-0
C         -3.59280       -3.05290       -3.07360
S         -3.40240       -2.12810       -1.51390
C         -1.65860       -1.56170       -1.82780
C         -0.62740       -0.65340       -0.95410
C         -0.40510        0.84040       -1.92180
C         -1.72920        1.65670       -2.42730
C         -1.61790        2.85480       -3.22160
C         -2.66860        3.41120       -3.95710
C         -3.90800        2.80370       -3.97300
C         -4.09680        1.65300       -3.23480
C         -3.03830        1.09660       -2.51120
C          0.04600        0.42930       -3.44080
C         -0.83820        0.27820       -4.58520
C         -0.37540        0.07020       -5.88970
C          0.98350       -0.01710       -6.14160
C          1.86630        0.06150       -5.07950
C          1.37420        0.23800       -3.78200
C          0.70810        1.91350       -1.09900
C          1.93940        2.38450       -2.09790
C          1.69020        2.92320       -3.41370
C          2.66970        3.47800       -4.24150
C          3.97480        3.57330       -3.81120
C          4.29090        3.12800       -2.54630
C          3.30710        2.57730       -1.71790
C          0.22160        3.50240       -0.79220
C         -1.10800        4.08620       -0.74560
C         -1.39250        5.42620       -0.45300
C         -0.38200        6.33100       -0.23140
C          0.91890        5.90600       -0.34550
C          1.20730        4.57150       -0.63930
C          0.89780       -1.59200       -0.78690
C          1.49420       -2.31640       -2.12630
C          0.87160       -2.42720       -3.41390
C          1.43910       -3.11110       -4.49670
C          2.60190       -3.83990       -4.33630
C          3.13180       -3.97440       -3.06900
C          2.55090       -3.29710       -1.99440
C          0.64430       -3.08840       -0.04530
C          0.06910       -4.20550       -0.80620
C         -0.15820       -5.48880       -0.30380
C          0.25610       -5.82230        0.96400
C          0.96450       -4.89420        1.69210
C          1.20940       -3.61430        1.18030
C          2.09130       -0.48100       -0.09560
C          2.94910       -1.23540        1.06190
C          3.19620       -0.74440        2.37190
C          3.99060       -1.40010        3.31970
C          4.69360       -2.53920        2.97370
C          4.67500       -2.95790        1.65720
C          3.88590       -2.28350        0.72180
C          3.51770       -0.15360       -0.95130
C          3.93230       -0.64150       -2.25060
C          5.15880       -0.36020       -2.86450
C          6.15530        0.29570       -2.17990
C          5.94670        0.60800       -0.85790
C          4.71470        0.33970       -0.25640
C          1.19260        1.02630        0.36570
C         -0.20220        0.77070        1.41790
C          0.24940        0.21870        2.87420
C          0.60230       -1.10650        3.02180
C          0.85880       -1.74940        4.23730
C          0.79530       -1.02770        5.41690
C          0.46090        0.31690        5.36500
C          0.18030        0.92640        4.13600
C         -0.96050        2.12070        1.96120
C         -2.18040        2.03380        2.72970
C         -2.78670        3.12110        3.36300
C         -2.18900        4.36410        3.33510
C         -0.98450        4.51100        2.67750
C         -0.39160        3.42400        2.02560
C         -1.30320       -0.32500        0.62220
C         -1.67660       -1.61240        1.56170
C         -1.94180       -2.91470        1.07520
C         -2.42290       -3.96990        1.85750
C         -2.72260       -3.77160        3.19040
C         -2.58030       -2.50680        3.72430
C         -2.11510       -1.45580        2.92940
C         -2.81910        0.23950        0.50440
C         -3.03350        1.55840        0.17520
C         -4.27180        2.20730        0.16530
C         -5.41480        1.49590        0.48790
C         -5.29800        0.15750        0.83090
C         -4.03940       -0.45650        0.85520
C          2.22890        1.97960        1.16330
S          2.34000        2.52680        2.93310
C          3.83820        3.54740        2.73300
H         -2.83880       -3.86520       -3.13160
H         -3.47770       -2.36930       -3.94040
H         -4.60620       -3.50230       -3.10460
H         -1.21080       -2.49800       -2.01300
H         -1.77140       -1.14600       -2.81840
H         -0.79230        3.51450       -3.15210
H         -2.52230        4.34140       -4.49210
H         -4.72580        3.23750       -4.53380
H         -5.07020        1.17840       -3.22120
H         -3.31490        0.25790       -1.97050
H         -1.90860        0.30160       -4.51950
H         -1.07970       -0.02220       -6.70690
H          1.34800       -0.16940       -7.14900
H          2.93100       -0.03080       -5.24960
H          2.01330        0.28750       -2.99710
H          0.80150        2.75190       -3.95870
H          2.41390        3.80220       -5.24280
H          4.73590        4.00070       -4.45090
H          5.30270        3.25030       -2.17950
H          3.67540        2.45160       -0.74880
H         -2.02280        3.65610       -1.03790
H         -2.41980        5.77220       -0.43020
H         -0.60690        7.36610       -0.00960
H          1.72380        6.61930       -0.21400
H          2.26320        4.44580       -0.71440
H         -0.05330       -1.99800       -3.67420
H          0.95240       -3.09140       -5.46400
H          3.03250       -4.37720       -5.17130
H          3.94710       -4.66600       -2.89860
H          2.82090       -3.70770       -1.04670
H         -0.16660       -4.16990       -1.85100
H         -0.63020       -6.23990       -0.92530
H          0.08610       -6.81700        1.35550
H          1.37090       -5.18050        2.65530
H          1.86660       -3.12960        1.84700
H          2.74000        0.11390        2.73750
H          4.06530       -1.00880        4.32660
H          5.31630       -3.04240        3.70180
H          5.33380       -3.75570        1.33810
H          4.18450       -2.46460       -0.28630
H          3.36100       -1.21080       -2.92690
H          5.34650       -0.69070       -3.87960
H          7.10930        0.49540       -2.65050
H          6.75950        1.02040       -0.27260
H          4.79150        0.45630        0.80840
H          0.62100       -1.60450        2.12660
H          1.10950       -2.80180        4.25550
H          1.00150       -1.50660        6.36510
H          0.40880        0.89320        6.28010
H         -0.06060        1.97310        4.21970
H         -2.76390        1.15230        2.79680
H         -3.72810        2.99060        3.88190
H         -2.65040        5.20750        3.83220
H         -0.49360        5.47640        2.67510
H          0.52890        3.67930        1.60200
H         -1.83990       -3.15910        0.07180
H         -2.58920       -4.94260        1.41220
H         -3.09260       -4.58710        3.79840
H         -2.83450       -2.33090        4.76210
H         -2.02230       -0.55180        3.47340
H         -2.15900        2.04270       -0.03410
H         -4.33650        3.25560       -0.09530
H         -6.38340        1.97840        0.47680
H         -6.18320       -0.41030        1.08820
H         -4.07520       -1.49530        1.13430
H          3.19030        1.57920        1.06750
H          2.29600        2.92300        0.68290
H          3.64600        4.37230        2.01580
H          4.68200        2.92340        2.37170
H          4.11070        3.98390        3.71540
