156
mol26-E-0
C          3.27800        2.16800       -3.94980
S          1.76160        1.17050       -3.77160
C          1.73850        1.16460       -1.91560
C          0.73480        0.50930       -0.82280
C         -0.15000        1.87470       -0.02710
C         -0.84610        2.98530       -0.98870
C         -1.33900        4.23120       -0.44370
C         -1.92370        5.24130       -1.21210
C         -1.92990        5.14330       -2.59030
C         -1.27700        4.07940       -3.18490
C         -0.70690        3.07140       -2.39880
C          0.89300        3.05220        0.60760
C          1.00270        3.54190        1.96810
C          1.86270        4.56290        2.39040
C          2.58350        5.29990        1.47960
C          2.39600        5.05510        0.14020
C          1.55110        4.02400       -0.27680
C         -1.36010        1.13960        1.02570
C         -3.00230        1.46400        0.75080
C         -3.98640        1.30970        1.83130
C         -5.35200        1.58400        1.72720
C         -5.86160        2.14630        0.58120
C         -4.98920        2.50320       -0.42070
C         -3.61820        2.24340       -0.30550
C         -1.42320        1.93190        2.44380
C         -1.36090        1.33990        3.73240
C         -1.47740        2.05260        4.93140
C         -1.78650        3.40010        4.91540
C         -2.07200        4.00280        3.70520
C         -1.96210        3.27210        2.51910
C         -0.28980       -0.67620       -1.64650
C         -1.05720        0.01900       -2.89820
C         -2.16350        0.80630       -2.66640
C         -3.01290        1.32930       -3.64810
C         -2.73250        1.10080       -4.98400
C         -1.61840        0.34600       -5.31590
C         -0.80640       -0.19110       -4.30960
C          0.46990       -1.82070       -2.52680
C         -0.28300       -2.84520       -3.21720
C          0.25690       -3.70740       -4.17500
C          1.57240       -3.57540       -4.56770
C          2.34150       -2.58020       -4.00050
C          1.80000       -1.72520       -3.03420
C         -1.40270       -1.37110       -0.48350
C         -1.49420       -3.03170       -0.39230
C         -2.71140       -3.73780       -0.00720
C         -2.83540       -5.12810        0.06480
C         -1.77260       -5.94130       -0.26170
C         -0.59190       -5.35770       -0.66470
C         -0.46940       -3.96490       -0.71600
C         -2.96840       -1.21010       -0.98580
C         -3.37930       -1.62970       -2.30400
C         -4.70170       -1.62970       -2.75530
C         -5.72840       -1.28380       -1.90380
C         -5.42980       -0.97690       -0.59370
C         -4.10340       -0.97240       -0.14770
C         -0.99310       -0.63330        1.06880
C          0.67050       -1.04970        1.50840
C          0.99880       -2.63160        1.73570
C          2.33490       -3.06860        2.07800
C          2.65210       -4.35440        2.52340
C          1.65590       -5.28680        2.72480
C          0.34640       -4.92760        2.48000
C          0.03370       -3.64200        2.02470
C          0.97760       -0.59140        3.03640
C          1.24250        0.73240        3.31020
C          1.68090        1.23970        4.53860
C          1.83240        0.38270        5.61470
C          1.55590       -0.96450        5.44340
C          1.15050       -1.44680        4.19290
C          1.76550       -0.30990        0.35610
C          2.90880       -1.28340       -0.36690
C          2.82010       -2.68570       -0.60020
C          3.81700       -3.47840       -1.17980
C          5.00450       -2.91670       -1.59360
C          5.20090       -1.56720       -1.40190
C          4.20830       -0.78500       -0.80510
C          2.89500        0.62260        1.12070
C          3.44480        1.85080        0.63400
C          4.49740        2.54200        1.24410
C          5.12600        2.02390        2.35610
C          4.72840        0.79230        2.82980
C          3.68090        0.10290        2.21370
C         -1.99270       -1.30080        2.15810
S         -1.72280       -2.04360        3.83760
C         -3.46870       -2.46680        4.15220
H          3.48350        2.32120       -5.02870
H          3.14520        3.15810       -3.46610
H          4.13970        1.63820       -3.49300
H          1.74990        2.20020       -1.76790
H          2.74640        0.87090       -1.71850
H         -1.09970        4.54420        0.54890
H         -2.30000        6.13790       -0.73570
H         -2.36310        5.92920       -3.19530
H         -1.19840        4.03340       -4.26390
H         -0.22160        2.34010       -2.95050
H          0.48050        3.19750        2.81680
H          1.93640        4.81000        3.44320
H          3.23220        6.10150        1.80840
H          2.87390        5.69550       -0.59090
H          1.37430        4.09350       -1.33460
H         -3.73520        1.05350        2.84430
H         -6.01000        1.39470        2.56640
H         -6.91800        2.36670        0.49750
H         -5.37130        3.02900       -1.28820
H         -3.14030        2.69870       -1.12750
H         -1.15300        0.33320        3.86710
H         -1.33570        1.54580        5.87790
H         -1.88700        3.95150        5.84120
H         -2.45710        5.01440        3.68670
H         -2.50010        3.70810        1.70620
H         -2.32740        0.94670       -1.66700
H         -3.87760        1.91550       -3.36760
H         -3.37100        1.50830       -5.75670
H         -1.38300        0.16490       -6.35700
H          0.02850       -0.75420       -4.68950
H         -1.26690       -3.12090       -2.94170
H         -0.35500       -4.48990       -4.60640
H          1.99360       -4.23930       -5.31160
H          3.37030       -2.45670       -4.31590
H          2.49710       -1.00930       -2.71890
H         -3.62300       -3.26210        0.28270
H         -3.77210       -5.57410        0.37590
H         -1.86730       -7.01840       -0.21450
H          0.24310       -5.98550       -0.95150
H          0.42550       -3.68510       -1.11910
H         -2.70700       -1.81540       -3.09520
H         -4.92410       -1.88750       -3.78350
H         -6.75460       -1.28920       -2.24790
H         -6.23700       -0.78790        0.10310
H         -4.06120       -0.90760        0.89540
H          3.19900       -2.49300        1.87340
H          3.68470       -4.62650        2.70340
H          1.89700       -6.28290        3.07260
H         -0.44480       -5.64710        2.65270
H         -1.00000       -3.51450        1.90980
H          1.11480        1.32380        2.48600
H          1.89160        2.29470        4.65110
H          2.15800        0.75960        6.57540
H          1.66330       -1.64550        6.27810
H          0.96230       -2.50650        4.18420
H          2.04580       -3.25860       -0.26070
H          3.66150       -4.54390       -1.29730
H          5.77400       -3.52710       -2.04850
H          6.13390       -1.11450       -1.71460
H          4.52220        0.23380       -0.73690
H          3.20650        2.27580       -0.29150
H          4.85970        3.46780        0.81450
H          5.94140        2.55780        2.82650
H          5.22360        0.36730        3.69420
H          3.43010       -0.76850        2.75250
H         -2.57530       -2.07360        1.70510
H         -2.70310       -0.58300        2.43040
H         -4.09540       -1.55100        4.13030
H         -3.55130       -2.93310        5.15500
H         -3.83040       -3.18900        3.39090
