108
mol2-E-0
C          5.85950        0.10940       -0.41770
S          4.49380       -0.46400        0.64420
C          3.14290        0.21590       -0.40910
C          1.56480        0.12150       -0.14060
C          1.28750        0.80010        1.40600
C          1.77720       -0.21140        2.58380
C          2.33140        0.21330        3.98450
C          2.27320        2.04440        1.84630
C          2.71640        3.42980        1.32380
C         -0.35370        1.05530        1.56080
C         -0.94140        0.62930        3.01490
C         -2.26470        1.21720        3.59770
C         -0.61240        2.63540        1.60960
C         -0.42620        3.47510        2.91180
C          0.83500        1.05650       -1.41030
C          1.30300        0.65230       -2.92000
C          0.84700        1.49370       -4.14070
C          1.40460        2.56510       -1.44960
C          2.74460        3.00390       -2.13310
C         -0.84470        1.03250       -1.19400
C         -1.57080        0.28290       -2.42450
C         -2.25800        0.97180       -3.64310
C         -1.48040        2.52460       -1.31620
C         -2.98830        2.83120       -1.19520
C         -1.15830        0.23170        0.27640
C         -0.68310       -1.43470        0.18150
C         -1.57610       -2.31300       -0.87460
C         -1.69960       -3.86440       -0.83540
C         -1.00650       -2.30520        1.51000
C         -2.45250       -2.55280        2.01880
C          0.96440       -1.48840       -0.19910
C          1.20740       -2.19960       -1.61570
C          2.63750       -2.38250       -2.18400
C          1.78510       -2.54630        0.74260
C          1.84870       -4.07950        0.49140
C         -2.71640        0.33660        0.66420
S         -4.18700       -0.22320       -0.30420
C         -5.42660        0.31220        0.91980
H          5.77850       -0.34810       -1.42550
H          5.83940        1.21590       -0.50400
H          6.82350       -0.19650        0.03760
H          3.40880       -0.10230       -1.41240
H          3.38410        1.27080       -0.34560
H          1.00890       -0.89060        2.86520
H          2.61700       -0.79230        2.24200
H          2.36650       -0.68010        4.64580
H          3.37930        0.57500        3.91870
H          1.73780        0.97550        4.52090
H          3.28260        1.60450        1.97710
H          1.95470        2.34490        2.85060
H          1.90160        4.16250        1.17740
H          3.36600        3.90230        2.09460
H          3.37540        3.34990        0.44370
H         -0.20760        0.86310        3.78610
H         -1.06530       -0.42560        3.14330
H         -2.06510        1.72460        4.56670
H         -2.78370        1.94650        2.95530
H         -2.98910        0.40560        3.82600
H          0.04190        3.12800        0.93450
H         -1.62270        2.89050        1.28090
H         -1.41000        3.78590        3.32140
H          0.12620        2.97820        3.72570
H          0.10540        4.42500        2.68950
H          1.12690       -0.33340       -3.27680
H          2.39690        0.66120       -3.00070
H          1.72070        1.73150       -4.78600
H          0.16990        0.90470       -4.79400
H          0.36480        2.45120       -3.89290
H          1.38690        2.93900       -0.48660
H          0.74280        3.26740       -1.95770
H          3.09060        3.96070       -1.69000
H          3.58630        2.29340       -2.10590
H          2.58490        3.24290       -3.20360
H         -2.40370       -0.28540       -2.04860
H         -0.91130       -0.43780       -2.89000
H         -2.31750        0.23880       -4.47710
H         -3.31130        1.24000       -3.43730
H         -1.75660        1.85760       -4.05790
H         -0.99590        3.31810       -0.75820
H         -1.24730        2.89700       -2.32300
H         -3.63760        1.99870       -1.47090
H         -3.25020        3.66500       -1.88300
H         -3.26220        3.20360       -0.18950
H         -2.61300       -2.03630       -0.78530
H         -1.38000       -2.15300       -1.92180
H         -2.26680       -4.23610        0.03840
H         -0.74880       -4.40560       -0.89480
H         -2.28790       -4.19700       -1.71880
H         -0.63420       -3.32050        1.33090
H         -0.42300       -2.14270        2.39250
H         -3.23730       -2.42970        1.25430
H         -2.53940       -3.59510        2.39650
H         -2.69590       -1.91880        2.89350
H          0.83370       -3.22400       -1.55750
H          0.54430       -1.93490       -2.41340
H          2.90050       -1.61080       -2.92820
H          3.42270       -2.42060       -1.40800
H          2.69280       -3.34340       -2.74040
H          1.51670       -2.54360        1.79130
H          2.83870       -2.30000        0.71910
H          0.86890       -4.57560        0.49740
H          2.39690       -4.34980       -0.43160
H          2.42730       -4.55130        1.31610
H         -2.86490       -0.16980        1.60570
H         -2.96130        1.36590        0.89350
H         -5.26760       -0.21670        1.88250
H         -6.43890        0.06660        0.53930
H         -5.35970        1.40880        1.07750
