132
mol22-A-1
C         -0.50440        1.49570       -5.82740
S         -1.40860        1.86150       -4.28640
C         -0.35290        0.81800       -3.15560
C         -0.21820        0.38840       -1.60230
C          0.77760       -1.13420       -1.42760
N         -0.08970       -2.40750       -1.78170
C         -0.07270       -2.90820       -3.19700
C         -0.08460       -3.72640       -1.05720
N          2.02710       -1.27630       -2.38850
C          2.19720       -0.87110       -3.83430
C          2.78080       -2.56630       -2.37720
C          1.29320       -1.12570        0.25500
N          1.41930       -2.59830        0.76480
C          2.64800       -3.45420        0.66810
C          0.79700       -3.07080        1.99040
N          2.74050       -0.56160        0.51160
C          3.42380       -0.94630        1.80270
C          3.90360       -0.54720       -0.43700
C         -1.89380        0.25340       -0.89840
N         -2.92720       -0.60940       -1.69320
C         -4.41610       -0.42280       -1.67850
C         -2.68120       -1.10560       -3.03700
N         -2.56930        1.67550       -0.91240
C         -3.49860        2.26220        0.10960
C         -3.22700        2.12610       -2.19560
C         -1.65410       -0.44860        0.69750
N         -1.88910       -2.01180        0.70540
C         -2.35030       -2.65520        1.98110
C         -2.71310       -2.80030       -0.27630
N         -2.75280        0.08130        1.70590
C         -4.17030       -0.33680        1.48620
C         -2.72630        0.18190        3.21340
C          0.08450       -0.05960        1.10560
C          0.64880        1.64700        0.80510
N         -0.03970        2.85260        1.49750
C          0.68310        4.13060        1.80000
C         -1.07550        2.76800        2.50650
N          2.10560        1.72910        1.43350
C          2.28560        2.07850        2.89930
C          3.36000        2.26400        0.83610
C          0.47670        1.92270       -0.90640
N          1.84690        2.47130       -1.38470
C          2.64010        1.93150       -2.46980
C          2.18780        3.93070       -1.35310
N         -0.49680        3.08410       -1.38300
C         -0.27820        3.76080       -2.72370
C         -1.11840        4.17780       -0.58690
C          0.34420       -0.16730        2.69820
S         -0.09300       -1.22540        4.17170
C          0.84360       -0.27020        5.41110
H         -0.99580        2.02750       -6.66750
H         -0.52440        0.40600       -6.03510
H          0.54470        1.84760       -5.74800
H          0.59340        1.17660       -3.44010
H         -0.41690       -0.08220       -3.68910
H          0.03100       -2.14530       -3.93880
H         -1.04540       -3.39030       -3.44330
H          0.68190       -3.69430       -3.39930
H         -0.85590       -4.41660       -1.47160
H          0.80920       -4.34780       -1.17360
H         -0.40930       -3.69190       -0.03410
H          1.83540        0.08330       -4.16900
H          3.28670       -0.73760       -4.02630
H          1.89320       -1.62520       -4.58670
H          2.39960       -3.28110       -1.70290
H          2.74940       -3.13820       -3.33120
H          3.86540       -2.41120       -2.25930
H          3.14810       -3.62530        1.64880
H          2.38470       -4.47250        0.31810
H          3.43970       -3.08980        0.04000
H          1.43830       -2.99070        2.88920
H         -0.06470       -2.52940        2.10560
H          0.50900       -4.14270        1.91090
H          3.91770       -0.08400        2.26550
H          4.27680       -1.64930        1.67070
H          2.82480       -1.46210        2.54890
H          4.47940       -1.47720       -0.50290
H          3.75750       -0.14820       -1.41340
H          4.71250        0.10370       -0.04340
H         -4.81100        0.23400       -0.92550
H         -4.82080       -0.00640       -2.62900
H         -4.92830       -1.40020       -1.57210
H         -1.67250       -1.26870       -3.10600
H         -3.02980       -0.43250       -3.84400
H         -3.18910       -2.08100       -3.20750
H         -3.20370        2.24610        1.13260
H         -4.55040        1.96670        0.02610
H         -3.63220        3.34960       -0.07190
H         -3.06630        1.51400       -3.07950
H         -4.33830        2.16400       -2.14460
H         -2.98040        3.16900       -2.42580
H         -1.97100       -3.70000        2.04100
H         -3.44990       -2.75710        2.07510
H         -1.97890       -2.19550        2.87210
H         -2.63570       -3.89490       -0.07960
H         -2.36630       -2.77790       -1.29240
H         -3.79910       -2.67320       -0.22030
H         -4.30940       -0.96070        0.64810
H         -4.60560       -0.96700        2.29340
H         -4.86090        0.52180        1.49240
H         -3.46030        0.96320        3.51710
H         -1.84930        0.55350        3.71000
H         -3.06490       -0.71800        3.76400
H          0.91000        4.25110        2.88040
H          1.61790        4.25850        1.27360
H          0.04420        5.01490        1.61790
H         -1.60830        1.94420        2.23310
H         -1.76170        3.64210        2.47320
H         -0.69950        2.70580        3.54780
H          1.38490        2.19390        3.49690
H          2.82350        3.04170        3.05990
H          2.90420        1.33500        3.43040
H          3.60800        1.89810       -0.13960
H          3.45200        3.35870        0.91410
H          4.24450        1.91920        1.41440
H          2.46360        0.92980       -2.41910
H          3.72850        2.09250       -2.31020
H          2.40480        2.35560       -3.46710
H          2.18780        4.39440       -2.36240
H          3.23580        4.09950       -1.04250
H          1.53750        4.53510       -0.73740
H         -0.02180        4.84220       -2.63480
H         -1.18890        3.75230       -3.34660
H          0.51490        3.36810       -3.35500
H         -1.62530        3.87700        0.30750
H         -1.95660        4.64170       -1.15060
H         -0.45060        5.03860       -0.42630
H          1.38750       -0.13630        2.82410
H          0.04720        0.75780        3.09210
H          0.70320       -0.73790        6.40680
H          0.47190        0.77440        5.45240
H          1.92490       -0.27870        5.16300
