108
mol2-D-1
C          0.73750        5.57180        1.81260
S          0.84370        4.42980        0.39680
C          0.43840        2.90950        1.36070
C          0.32980        1.41430        0.79730
C         -0.51100        1.62140       -0.69190
C         -1.86880        2.50420       -0.56540
C         -1.94300        4.04810       -0.58710
C          0.20800        2.48240       -1.88910
C          0.89830        3.89070       -1.84460
C         -0.89540        0.08060       -1.26160
C         -0.66650       -0.14850       -2.85050
C         -1.29980        0.76460       -3.93760
C         -2.47990       -0.23640       -1.15610
C         -3.53590       -0.13470       -2.28310
C         -0.56400        0.43960        1.91590
C          0.06260        0.48850        3.42720
C         -0.72780        0.14420        4.72470
C         -2.05040        0.97090        2.28500
C         -2.31310        2.33290        2.98680
C         -0.62870       -1.12660        1.28520
C         -2.12880       -1.77930        1.39210
C         -2.72430       -2.40840        2.68670
C          0.12530       -2.17010        2.25870
C          0.12540       -3.70000        1.99630
C         -0.01540       -1.06470       -0.33490
C          1.67340       -0.68640       -0.35060
C          2.60630       -1.88300        0.21540
C          2.92770       -3.16560       -0.61640
C          2.31520       -0.56120       -1.84430
C          3.81000       -0.82780       -2.22540
C          1.88030        0.73350        0.51910
C          2.81250        1.82320       -0.19810
C          4.31730        1.66100       -0.50920
C          2.65200        0.48090        1.91270
C          4.15690        0.64640        2.20130
C         -0.10470       -2.52490       -1.02220
S         -1.61960       -3.41050       -1.59550
C         -0.75050       -4.89750       -2.19260
H         -0.27900        5.53790        2.25710
H          1.49240        5.30010        2.57970
H          0.94050        6.60370        1.46040
H         -0.51060        3.18640        1.78760
H          1.08810        2.92560        2.22200
H         -2.50620        2.26020       -1.42830
H         -2.47090        2.26630        0.27080
H         -2.94090        4.36600       -0.21220
H         -1.90440        4.43210       -1.62800
H         -1.21020        4.56710        0.05000
H         -0.57500        2.73170       -2.61750
H          0.83970        1.87970       -2.52390
H          0.23310        4.73720       -1.62960
H          1.28340        4.10440       -2.86570
H          1.77860        4.01760       -1.19840
H         -0.99170       -1.17450       -3.10660
H          0.34760       -0.15060       -3.17430
H         -2.01340        1.50980       -3.56100
H         -1.81890        0.14860       -4.70300
H         -0.51510        1.32550       -4.49260
H         -2.60110       -1.27220       -0.93650
H         -2.95850        0.29920       -0.35850
H         -3.28890       -0.76740       -3.15820
H         -3.78400        0.90280       -2.57110
H         -4.49680       -0.54490       -1.89960
H          0.38730        1.50750        3.63850
H          0.93690       -0.12530        3.58650
H         -1.14850       -0.86930        4.74570
H         -1.52720        0.86750        4.96720
H         -0.02900        0.19530        5.58860
H         -2.47950        0.25810        2.99490
H         -2.83500        0.84870        1.56300
H         -2.62360        3.12000        2.27260
H         -1.46310        2.70670        3.58700
H         -3.17370        2.23040        3.68350
H         -2.20120       -2.61670        0.70460
H         -2.94560       -1.12920        1.11190
H         -2.71550       -1.74780        3.56260
H         -2.25350       -3.36980        2.96330
H         -3.79310       -2.65690        2.50490
H         -0.34950       -2.09870        3.24160
H          1.09920       -1.91680        2.62360
H          0.03170       -4.24300        2.96220
H         -0.69830       -4.05640        1.35240
H          1.08410       -4.04670        1.57720
H          2.34420       -2.28160        1.16610
H          3.58870       -1.45130        0.45690
H          2.54780       -4.07910       -0.11640
H          4.02750       -3.30800       -0.68580
H          2.53230       -3.17840       -1.64460
H          2.12530        0.38780       -2.30100
H          1.84990       -1.27660       -2.51440
H          4.49810       -1.10370       -1.41470
H          3.88500       -1.66470       -2.95600
H          4.23860        0.04060       -2.76650
H          2.77370        2.76290        0.37290
H          2.43070        2.04540       -1.16160
H          4.53130        1.91990       -1.56860
H          4.92330        2.39050        0.06850
H          4.71110        0.66390       -0.31650
H          2.27700        1.16410        2.64630
H          2.47500       -0.50590        2.29240
H          4.48430        1.69870        2.09740
H          4.80030       -0.06700        1.65620
H          4.33420        0.40730        3.27370
H          0.41980       -3.23960       -0.40070
H          0.44190       -2.53560       -1.95910
H         -1.49160       -5.59780       -2.62900
H         -0.01240       -4.62310       -2.97470
H         -0.23450       -5.40220       -1.34960
