132
mol22-D-0
C          2.19950       -5.15680        1.47980
S          2.64880       -3.42840        1.84870
C          1.26250       -2.63250        0.88760
C          0.67140       -1.17860        0.51000
C         -0.37880       -1.57370       -0.95310
N          0.28740       -2.17490       -2.22760
C          1.69960       -2.43460       -2.31120
C         -0.32850       -3.17650       -3.16970
N         -1.31750       -2.78080       -0.52260
C         -2.77660       -2.99560       -0.78150
C         -0.77810       -4.20020       -0.56000
C         -1.15800       -0.05530       -1.42530
N         -0.79140        0.51850       -2.86510
C         -1.70850        1.50580       -3.56970
C         -0.18340       -0.21750       -4.00920
N         -2.69980       -0.33930       -1.58720
C         -3.95770        0.45980       -1.31800
C         -3.04880       -1.04820       -2.86230
C          2.00360        0.06330        0.30410
N          3.32830       -0.41880       -0.41420
C          4.50510        0.49770       -0.47640
C          4.00950       -1.76310       -0.39260
N          2.53090        0.55410        1.70690
C          3.68880       -0.17950        2.31530
C          2.91550        1.96610        2.07170
C          1.24370        1.35500       -0.60800
N          1.51350        1.30110       -2.16830
C          1.34480        2.57080       -2.97850
C          2.68100        0.68210       -2.89160
N          1.87810        2.72430       -0.20920
C          3.08970        3.33010       -0.85160
C          1.09310        3.89310        0.17090
C         -0.54340        1.18080       -0.25390
C         -0.90640        0.91060        1.51980
N         -0.06990        1.90780        2.42000
C         -0.69010        3.23080        2.78080
C          0.61220        1.58550        3.72530
N         -2.38160        1.15580        2.00180
C         -3.43170        1.95420        1.34440
C         -2.72680        1.32170        3.45150
C         -0.49320       -0.75590        1.80650
N         -1.68330       -1.76160        1.72200
C         -1.69210       -3.05850        2.48640
C         -3.09240       -1.35150        1.70370
N         -0.04890       -0.90580        3.28800
C          1.14350       -1.62330        3.70900
C         -1.00950       -1.11630        4.41850
C         -1.25910        2.50860       -0.82200
S         -1.91890        4.13630       -0.19860
C         -2.48120        4.76810       -1.81410
H          2.93770       -5.83080        1.96000
H          1.19230       -5.38480        1.88560
H          2.21560       -5.33280        0.38440
H          1.46100       -3.10230       -0.02770
H          0.44400       -3.17180        1.28550
H          2.07130       -1.72320       -1.68190
H          2.09780       -2.28260       -3.33750
H          1.98740       -3.46800       -2.02320
H         -1.36490       -3.43780       -3.00230
H         -0.21190       -2.86190       -4.22300
H          0.18320       -4.16540       -3.14670
H         -3.45470       -2.17910       -0.59090
H         -3.00050       -3.43370       -1.76800
H         -3.17400       -3.76730       -0.08700
H         -1.36990       -4.88690       -1.20930
H         -0.80560       -4.68720        0.42840
H          0.22490       -4.34280       -0.95900
H         -1.94460        1.23860       -4.62740
H         -1.28060        2.51770       -3.64180
H         -2.70610        1.62300       -3.17620
H          0.14790        0.48660       -4.80380
H         -0.89680       -0.85620       -4.55450
H          0.75980       -0.67800       -3.81060
H         -4.41860        0.27090       -0.34970
H         -3.98580        1.52060       -1.59470
H         -4.83500        0.11740       -1.91570
H         -3.93410       -1.70880       -2.74270
H         -2.25940       -1.65780       -3.22430
H         -3.35500       -0.37600       -3.68520
H          5.39580        0.14270        0.08760
H          4.90500        0.58380       -1.50110
H          4.34190        1.44690       -0.05080
H          4.76090       -1.89900        0.41080
H          4.59550       -1.87190       -1.33360
H          3.41080       -2.65300       -0.43190
H          3.74140       -1.21470        2.05850
H          4.68100        0.26740        2.10220
H          3.61700       -0.15790        3.42590
H          3.20470        2.03790        3.14580
H          2.11780        2.69180        2.05000
H          3.82610        2.36570        1.61810
H          0.94300        3.45170       -2.49050
H          0.80860        2.38100       -3.91800
H          2.30070        2.99560       -3.36110
H          2.44960        0.57920       -3.97300
H          3.00810       -0.30090       -2.64990
H          3.57900        1.31070       -2.96660
H          3.78720        3.71490       -0.08080
H          3.64900        2.69040       -1.51110
H          2.85740        4.22350       -1.47530
H          1.67260        4.56590        0.84280
H          0.28950        3.56040        0.72700
H          0.75500        4.50870       -0.68440
H          0.07360        4.03870        2.76830
H         -1.50880        3.52480        2.15420
H         -1.08010        3.29280        3.82110
H          1.37570        0.82660        3.69360
H          1.20060        2.45940        4.08940
H         -0.03450        1.42340        4.59000
H         -3.52670        2.99090        1.72890
H         -4.42350        1.48360        1.52290
H         -3.32210        2.03640        0.31800
H         -3.62210        0.73750        3.73720
H         -1.94260        1.10670        4.13610
H         -3.02900        2.35710        3.72280
H         -0.73880       -3.39900        2.89210
H         -2.39210       -3.04340        3.35100
H         -2.10990       -3.87150        1.87450
H         -3.47670       -1.01750        2.66400
H         -3.78160       -2.19970        1.50670
H         -3.22430       -0.65820        0.91110
H          1.52050       -1.23250        4.68090
H          1.88070       -1.41900        3.01700
H          0.99360       -2.71100        3.83850
H         -2.05610       -0.99150        4.16690
H         -0.76580       -0.45970        5.27600
H         -0.94850       -2.13810        4.85810
H         -0.68710        2.82610       -1.63780
H         -2.12930        2.18660       -1.29510
H         -2.94170        5.76660       -1.66980
H         -1.61950        4.86900       -2.50610
H         -3.23880        4.08520       -2.25100
