60
mol21-D-1
C         -4.74600        2.23970        1.79060
S         -2.95770        2.37340        1.47360
C         -2.71530        0.58300        1.11370
C         -1.24530        0.07400        0.74470
C         -0.17390        0.82820        1.68730
N         -0.55850        0.67050        3.10950
N         -0.22530        2.28860        1.41390
C          1.30140        0.20290        1.43880
N          1.69160       -0.62050        2.61250
N          2.29990        1.28770        1.32300
C         -0.92230        0.44610       -0.80540
N         -1.27920        1.85790       -1.08040
N         -1.74050       -0.38840       -1.72110
C          0.65280        0.19900       -1.10400
N          0.83010       -0.46730       -2.41300
N          1.35980        1.49980       -1.19320
C          1.28810       -0.70110        0.08590
C          0.35370       -1.99270        0.35280
N          1.01040       -2.88530        1.33430
N          0.21830       -2.77760       -0.89800
C         -1.09020       -1.52330        0.91640
N         -1.26380       -1.89470        2.34230
N         -2.16760       -2.21000        0.17000
C          2.78620       -1.14650       -0.27330
S          3.02220       -2.47770       -1.52460
C          4.84160       -2.47080       -1.44190
H         -5.26780        1.86850        0.88420
H         -4.93350        1.55170        2.64100
H         -5.14340        3.24290        2.04710
H         -3.11430        0.07210        2.00380
H         -3.41150        0.32310        0.28950
H         -1.40900        1.24130        3.30830
H          0.14910        1.13520        3.72130
H          0.36840        2.59360        0.62130
H          0.11190        2.83940        2.23670
H          1.90060       -0.01200        3.43480
H          2.59820       -1.10690        2.47260
H          3.26690        0.89240        1.33920
H          2.25110        1.89850        2.17050
H         -1.10320        2.07470       -2.08780
H         -2.30790        2.00350       -0.98220
H         -2.75720       -0.31000       -1.51870
H         -1.67780       -0.03870       -2.70270
H          1.83670       -0.44120       -2.68470
H          0.39510        0.11660       -3.16210
H          1.05600        2.02840       -2.04110
H          2.38010        1.37210       -1.35320
H          0.39590       -3.70870        1.52900
H          1.87830       -3.30090        0.93030
H         -0.47420       -2.39260       -1.56760
H         -0.07550       -3.76120       -0.69740
H         -0.41080       -1.76130        2.91970
H         -1.53480       -2.89970        2.44340
H         -2.07320       -3.24570        0.27980
H         -3.10160       -1.98020        0.57400
H          3.31980       -1.52220        0.61140
H          3.39490       -0.28860       -0.60320
H          5.23780       -3.23460       -2.14180
H          5.17910       -2.71750       -0.41380
H          5.23390       -1.47590       -1.73830
