60
mol21-A-2
C         -4.65640        3.66700        1.05840
S         -3.62760        2.20820        1.41970
C         -2.50960        2.42210       -0.02910
C         -1.33130        1.35420       -0.23230
C         -1.95630       -0.04600       -0.77930
N         -2.45040        0.11870       -2.17140
N         -3.11020       -0.45360        0.05140
C         -0.82200       -1.20060       -0.75950
N         -1.04950       -2.18900        0.32390
N         -0.86250       -1.96150       -2.03240
C         -0.57260        1.05780        1.16850
N         -0.18420        2.32340        1.82790
N         -1.48790        0.35530        2.10110
C          0.74070        0.14710        0.88680
N          0.86680       -0.90070        1.92290
N          1.96520        0.98040        0.97290
C          0.62720       -0.51830       -0.58620
C          0.75050        0.66950       -1.69260
N          0.41190        0.15250       -3.04430
N          2.13870        1.17640       -1.75090
C         -0.26570        1.87410       -1.32310
N         -0.98250        2.31460       -2.54510
N          0.44770        3.06810       -0.80560
C          1.79610       -1.59020       -0.82050
S          1.65210       -3.22220        0.02250
C          3.21020       -3.89420       -0.63900
H         -5.14490        3.55430        0.06830
H         -5.44140        3.75690        1.83680
H         -4.03440        4.58600        1.06900
H         -3.15520        2.49310       -0.91930
H         -2.11190        3.44230        0.08170
H         -3.00850       -0.71490       -2.46170
H         -3.14950        0.88420       -2.24770
H         -3.91100        0.20070       -0.09540
H         -3.46720       -1.37910       -0.27950
H         -1.39270       -1.78190        1.21150
H         -1.76040       -2.90370        0.04580
H         -1.78370       -2.44560       -2.13070
H         -0.18020       -2.74960       -2.01640
H         -1.03670        2.80330        2.19020
H          0.33160        2.11030        2.71120
H         -1.07830        0.30910        3.06030
H         -2.36770        0.88780        2.25540
H          1.80980       -1.34240        1.85880
H          0.90540       -0.45320        2.86630
H          2.82070        0.43760        0.73860
H          2.14550        1.27620        1.95780
H          0.65970        0.85480       -3.77640
H          1.00680       -0.65710       -3.31110
H          2.19020        1.97260       -2.42670
H          2.77220        0.45120       -2.15580
H         -1.59790        3.13100       -2.34120
H         -0.30210        2.69680       -3.24070
H          1.24840        2.85450       -0.18540
H          0.83790        3.64710       -1.58390
H          1.90170       -1.84240       -1.88650
H          2.78450       -1.18230       -0.55370
H          4.06620       -3.26980       -0.30900
H          3.35040       -4.92540       -0.25530
H          3.17290       -3.92640       -1.74770
