72
mol29-D-0
C          4.97240        2.86810        1.07360
S          4.33990        2.03900        2.56470
C          2.57980        2.05710        2.08000
Si         1.45510        1.26650        3.36900
Si         2.50600        0.20430        5.07160
C          3.79780       -0.99820        4.45410
C          3.37970        1.41080        6.19590
Si         1.01000       -0.93400        6.29410
C          1.33690       -0.64820        8.11070
C          1.22880       -2.76190        5.99380
Si         0.18580       -0.24330        2.28810
C         -0.53190        0.49590        0.72960
C          1.21710       -1.70530        1.76080
Si        -1.46680       -0.94480        3.62170
C         -3.09400       -0.25830        3.02080
C         -1.61180       -2.80490        3.54140
Si        -1.06480       -0.28780        5.72790
Si        -1.19310        1.95420        5.82790
C         -0.58710        2.61880        7.46400
C         -2.96830        2.50010        5.63980
Si         0.07430        2.83810        4.20740
C          1.03070        4.28500        4.89520
C         -1.02790        3.53150        2.87190
C         -2.36020       -1.10460        6.80240
S         -2.20530       -0.56060        8.53190
C         -3.59630       -1.57200        9.12620
H          4.70020        2.29180        0.16510
H          4.56350        3.89370        1.00970
H          6.07770        2.93120        1.13890
H          2.49190        1.46710        1.14580
H          2.22330        3.08330        1.85560
H          4.19870       -1.57150        5.31490
H          3.35420       -1.70210        3.72720
H          4.62980       -0.44970        3.97170
H          3.93750        0.84660        6.97080
H          4.09370        2.02330        5.61250
H          2.64170        2.06580        6.69290
H          0.67980       -1.30740        8.71270
H          2.39540       -0.89340        8.33340
H          1.14420        0.40760        8.37620
H          1.35230       -2.95310        4.91210
H          2.13800       -3.11290        6.52320
H          0.34350       -3.30980        6.37660
H         -1.11170       -0.28170        0.19180
H         -1.20300        1.33880        0.97470
H          0.28880        0.85680        0.07730
H          1.43430       -2.34700        2.63420
H          2.16490       -1.34770        1.30900
H          0.65270       -2.30030        1.01420
H         -2.99750        0.82380        2.82150
H         -3.38070       -0.77000        2.07940
H         -3.87600       -0.43090        3.78800
H         -0.65690       -3.28010        3.83060
H         -2.41400       -3.14130        4.22940
H         -1.86610       -3.10640        2.50480
H         -0.80190        3.70570        7.51530
H         -1.10390        2.10870        8.29970
H          0.50440        2.46900        7.54940
H         -3.36290        2.19260        4.65390
H         -3.02220        3.60460        5.72480
H         -3.58020        2.03780        6.44120
H          1.77710        3.93750        5.63370
H          1.54000        4.81450        4.06510
H          0.32670        4.98460        5.39010
H         -1.49450        4.47000        3.23490
H         -0.42510        3.74510        1.96580
H         -1.82830        2.80980        2.63030
H         -3.36260       -0.83130        6.41260
H         -2.22750       -2.20450        6.73990
H         -3.71920       -1.41260       10.21700
H         -3.39260       -2.64720        8.94100
H         -4.53290       -1.27260        8.61150
