48
mol23-A-0
C         -0.51400       -4.82130       -1.76460
S         -0.03290       -3.66260       -0.44540
C         -0.29320       -2.15430       -1.45650
C          0.00380       -0.79030       -0.73240
C          1.44620       -0.79300       -0.06200
O          1.41090       -1.62370        1.08310
O          2.37610       -1.31800       -0.99080
C          1.83960        0.68830        0.36190
O          2.44000        0.70980        1.64300
O          2.73880        1.23480       -0.58430
C         -1.07130       -0.46460        0.38620
O         -2.32030       -0.18110       -0.21370
O         -1.22670       -1.56670        1.25580
C         -0.59180        0.79750        1.21150
O         -1.69460        1.64880        1.45830
O         -0.06430        0.35980        2.45050
C          0.53210        1.58570        0.40110
C          0.01560        1.79050       -1.08250
O          0.88840        2.66300       -1.77060
O         -1.26690        2.38610       -1.02570
C         -0.04780        0.38070       -1.81110
O          1.05970        0.24190       -2.68240
O         -1.24580        0.30400       -2.56310
C          0.78390        2.96680        1.11010
S          2.22850        3.92080        0.50200
C          1.98850        5.31670        1.64590
H         -1.56250       -4.63240       -2.07540
H          0.16280       -4.70930       -2.63720
H         -0.43530       -5.85900       -1.38090
H         -1.34040       -2.17440       -1.82040
H          0.35820       -2.24190       -2.35220
H          2.33470       -1.88290        1.33290
H          3.26570       -1.36860       -0.55450
H          3.28270        0.18760        1.60610
H          3.65160        0.88810       -0.41170
H         -2.75630       -1.04140       -0.44610
H         -1.98400       -1.36160        1.86490
H         -2.32080        1.16070        2.05500
H         -0.16160        1.08950        3.11540
H          0.50220        2.85910       -2.66330
H         -1.53910        2.65700       -1.94050
H          0.87460        0.75680       -3.51080
H         -1.12570       -0.36330       -3.28810
H         -0.11760        3.60700        1.00430
H          0.94550        2.80920        2.19550
H          2.05690        4.96590        2.69670
H          2.78200        6.07090        1.46750
H          0.99930        5.78850        1.47070
