60
mol21-C-2
C          3.78720        3.13210        0.22400
S          3.21650        1.40780        0.36030
C          1.42070        1.81350        0.29550
C          0.36780        0.60680        0.37980
C          0.81310       -0.61620       -0.58760
N          2.05760       -1.24230       -0.07860
N          1.11690       -0.12060       -1.94800
C         -0.37700       -1.71710       -0.64070
N          0.18650       -3.08400       -0.53950
N         -1.07260       -1.63680       -1.94990
C          0.31470        0.03970        1.90410
N          1.68040       -0.24390        2.39540
N         -0.27170        1.05420        2.81780
C         -0.58480       -1.30860        1.94970
N         -1.51570       -1.25860        3.10130
N          0.23600       -2.53260        2.14580
C         -1.42150       -1.44570        0.57620
C         -2.19410       -0.06200        0.27050
N         -3.07580        0.28420        1.41230
N         -3.07730       -0.23530       -0.90400
C         -1.11480        1.10950       -0.02210
N         -1.13340        1.52020       -1.44690
N         -1.45850        2.31680        0.76250
C         -2.42410       -2.68530        0.69670
S         -4.00390       -2.44810        1.61420
C         -4.59930       -4.15090        1.36470
H          3.43320        3.57840       -0.72850
H          4.89620        3.14750        0.23620
H          3.41130        3.72790        1.08150
H          1.31440        2.37850       -0.64150
H          1.23630        2.56630        1.07940
H          2.43040       -1.93530       -0.76510
H          2.83220       -0.55140       -0.00350
H          2.00400        0.42770       -1.93010
H          1.37950       -0.92510       -2.56050
H         -0.56100       -3.80090       -0.66770
H          0.82660       -3.26050       -1.34680
H         -1.88640       -2.28180       -2.00090
H         -0.46040       -1.98390       -2.72100
H          2.20740        0.64760        2.53390
H          1.62660       -0.66860        3.34960
H         -0.12040        0.78190        3.81430
H          0.22350        1.96560        2.76930
H         -0.97610       -1.14260        3.98790
H         -1.94760       -2.19750        3.24440
H          1.15600       -2.50810        1.66970
H          0.45510       -2.68270        3.15760
H         -3.84000        0.93510        1.11920
H         -2.58260        0.74700        2.20070
H         -3.58230        0.65810       -1.10510
H         -3.82890       -0.93010       -0.70180
H         -1.94290        2.15110       -1.64840
H         -1.20080        0.72960       -2.11520
H         -2.42770        2.62890        0.52410
H         -0.85310        3.12050        0.48490
H         -2.73850       -3.05540       -0.29140
H         -1.89840       -3.53730        1.17560
H         -3.89380       -4.87350        1.82480
H         -5.59130       -4.26120        1.84880
H         -4.70380       -4.36490        0.28080
