132
mol22-A-2
C         -0.63010        1.50670       -5.81390
S          0.63670        1.66920       -4.51210
C         -0.32320        0.81460       -3.15930
C         -0.19600        0.38580       -1.60510
C          0.80210       -1.13460       -1.42450
N         -0.06050       -2.40990       -1.78280
C         -0.03470       -2.91100       -3.19790
C         -0.05650       -3.72850       -1.05790
N          2.05710       -1.27430       -2.37850
C          2.23420       -0.86910       -3.82350
C          2.81360       -2.56270       -2.36270
C          1.30860       -1.12450        0.26090
N          1.43500       -2.59670        0.77190
C          2.66620       -3.44980        0.68210
C          0.80710       -3.07010        1.99430
N          2.75320       -0.55710        0.52510
C          3.43030       -0.93990        1.82010
C          3.92140       -0.54050       -0.41720
C         -1.87510        0.24740       -0.91020
N         -2.90230       -0.61800       -1.71030
C         -4.39170       -0.43460       -1.70370
C         -2.64800       -1.11400       -3.05260
N         -2.55360        1.66790       -0.92830
C         -3.48980        2.25300        0.08840
C         -3.20530        2.11670       -2.21520
C         -1.64250       -0.45360        0.68720
N         -1.87420       -2.01730        0.69430
C         -2.34090       -2.66130        1.96770
C         -2.69120       -2.80790       -0.29160
N         -2.74790        0.07420        1.68940
C         -4.16320       -0.34710        1.46210
C         -2.72980        0.17530        3.19710
C          0.09290       -0.06070        1.10460
C          0.65520        1.64700        0.80660
N         -0.03970        2.85130        1.49490
C          0.67860        4.13100        1.80080
C         -1.08080        2.76480        2.49820
N          2.10840        1.73250        1.44280
C          2.27960        2.08270        2.90950
C          3.36480        2.27000        0.85210
C          0.49180        1.92180       -0.90590
N          1.86330        2.47330       -1.37690
C          2.66360        1.93480       -2.45750
C          2.20080        3.93340       -1.34400
N         -0.48170        3.08090       -1.38820
C         -0.25730        3.75770       -2.72790
C         -1.10990        4.17360       -0.59580
C          0.34420       -0.16730        2.69860
S         -0.09870       -1.22600        4.17000
C          0.82910       -0.26830        5.41420
H         -0.25480        1.98350       -6.74230
H         -1.56610        2.01610       -5.50490
H         -0.83140        0.43540       -6.02000
H         -0.59500       -0.05780       -3.67910
H         -1.19840        1.38850       -3.21920
H          0.07130       -2.14810       -3.93940
H         -1.00510       -3.39530       -3.44930
H          0.72270       -3.69550       -3.39580
H         -0.82400       -4.42060       -1.47620
H          0.83930       -4.34810       -1.16920
H         -0.38680       -3.69440       -0.03660
H          1.87210        0.08440       -4.16050
H          3.32440       -0.73340       -4.00960
H          1.93590       -1.62420       -4.57730
H          2.43020       -3.27810       -1.69020
H          2.78850       -3.13490       -3.31670
H          3.89720       -2.40520       -2.23900
H          3.16120       -3.61960        1.66550
H          2.40690       -4.46890        0.33100
H          3.46040       -3.08390        0.05820
H          1.44330       -2.98830        2.89650
H         -0.05640       -2.53050        2.10460
H          0.52190       -4.14270        1.91350
H          3.91990       -0.07640        2.28520
H          4.28550       -1.64110        1.69290
H          2.82840       -1.45680        2.56320
H          4.49950       -1.46930       -0.47960
H          3.77980       -0.14220       -1.39440
H          4.72680        0.11230       -0.01940
H         -4.79210        0.22160       -0.95320
H         -4.79210       -0.01940       -2.65660
H         -4.90240       -1.41310       -1.59980
H         -1.63860       -1.27500       -3.11610
H         -2.99360       -0.44200       -3.86170
H         -3.15280       -2.09060       -3.22560
H         -3.20040        2.23790        1.11300
H         -4.54050        1.95520       -0.00070
H         -3.62480        3.34000       -0.09420
H         -3.03850        1.50480       -3.09810
H         -4.31700        2.15230       -2.17030
H         -2.95980        3.16020       -2.44440
H         -1.95970       -3.70530        2.03000
H         -3.44080       -2.76560        2.05580
H         -1.97540       -2.20060        2.86060
H         -2.61240       -3.90230       -0.09410
H         -2.33890       -2.78500       -1.30580
H         -3.77780       -2.68320       -0.24150
H         -4.29650       -0.97150        0.62350
H         -4.60150       -0.97790        2.26720
H         -4.85580        0.51010        1.46440
H         -3.46720        0.95510        3.49650
H         -1.85630        0.54900        3.69830
H         -3.06950       -0.72510        3.74610
H          0.89940        4.25230        2.88240
H          1.61600        4.26080        1.27950
H          0.03890        5.01380        1.61500
H         -1.61030        1.93980        2.22230
H         -1.76870        3.63740        2.46090
H         -0.71030        2.70380        3.54160
H          1.37540        2.19640        3.50220
H          2.81460        3.04710        3.07280
H          2.89690        1.34080        3.44420
H          3.61880        1.90430       -0.12210
H          3.45400        3.36480        0.93030
H          4.24690        1.92720        1.43530
H          2.48890        0.93270       -2.40750
H          3.75070        2.09820       -2.29210
H          2.43280        2.35810       -3.45620
H          2.20530        4.39670       -2.35340
H          3.24690        4.10450       -1.02770
H          1.54590        4.53660       -0.73200
H         -0.00370        4.83960       -2.63790
H         -1.16450        3.74700       -3.35570
H          0.54010        3.36660       -3.35470
H         -1.62110        3.87200        0.29600
H         -1.94610        4.63540       -1.16410
H         -0.44490        5.03590       -0.43180
H          1.38680       -0.13410        2.83020
H          0.04310        0.75720        3.09060
H          0.68430       -0.73600        6.40930
H          0.45490        0.77550        5.45310
H          1.91180       -0.27460        5.17200
