48
mol23-D-0
C         -2.34100        4.37580        1.64760
S         -2.26950        2.58660        1.31810
C         -0.59200        2.62860        0.57580
C         -0.01670        1.24700        0.08900
C         -0.76190        0.74510       -1.21310
O         -0.49210        1.65670       -2.26150
O         -2.15540        0.73200       -0.97550
C         -0.24440       -0.70940       -1.58540
O         -1.24510       -1.66170       -1.27410
O          0.02370       -0.75970       -2.97590
C         -0.14280        0.12810        1.21330
O         -1.50740       -0.21390        1.36020
O          0.32520        0.65950        2.43790
C          0.68130       -1.16820        0.78160
O          1.83120       -1.35640        1.58800
O         -0.11880       -2.31770        0.95020
C          1.07710       -1.05780       -0.75540
C          2.10270        0.13130       -0.95090
O          2.28830        0.32820       -2.34020
O          3.34540       -0.22340       -0.37990
C          1.52340        1.44740       -0.27250
O          2.23390        1.73770        0.91630
O          1.67680        2.53140       -1.17240
C          1.66020       -2.41150       -1.30540
S          3.03190       -3.15140       -0.33780
C          3.23410       -4.59470       -1.42930
H         -1.52270        4.67040        2.33690
H         -3.31400        4.61730        2.12230
H         -2.25490        4.94300        0.69750
H          0.09030        3.06490        1.33610
H         -0.62890        3.33750       -0.27810
H         -1.06410        1.43310       -3.04080
H         -2.62320        0.53590       -1.82820
H         -1.93260       -1.64210       -1.99010
H         -0.02840       -1.70370       -3.27840
H         -1.63520       -0.67870        2.22720
H          0.26600       -0.05170        3.12810
H          2.28200       -0.49610        1.75910
H         -0.18130       -2.50450        1.92390
H          3.03430        0.96710       -2.48050
H          4.01190        0.47580       -0.60580
H          3.10640        2.14230        0.66990
H          1.67830        3.37960       -0.65680
H          2.03530       -2.26090       -2.33960
H          0.84830       -3.16810       -1.35700
H          2.29650       -5.18790       -1.45600
H          4.05140       -5.23340       -1.03640
H          3.49910       -4.26390       -2.45510
