60
mol21-B-1
C         -3.92250       -2.70400       -3.50940
S         -2.53940       -2.84360       -2.33280
C         -2.55030       -1.06850       -1.84040
C         -1.47710       -0.57330       -0.75680
C          0.00170       -0.52360       -1.40100
N          0.30560       -1.81550       -2.05580
N          0.03990        0.50580       -2.46800
C          1.09420       -0.22360       -0.24530
N          1.94630       -1.40700        0.04090
N          2.01780        0.84470       -0.69520
C         -1.44750       -1.61680        0.49000
N         -2.81820       -1.86060        0.99060
N         -0.90660       -2.93090        0.05750
C         -0.51930       -1.01640        1.67490
N          0.39630       -2.07030        2.17730
N         -1.32740       -0.57960        2.84090
C          0.34140        0.23130        1.11260
C         -0.65710        1.45310        0.74710
N         -1.18770        2.07100        1.98120
N          0.07790        2.51750        0.02000
C         -1.87160        0.89080       -0.17310
N         -2.15490        1.83190       -1.27840
N         -3.11360        0.79790        0.63250
C          1.46190        0.66440        2.16430
S          0.96710        0.84840        3.92850
C          2.62320        1.32580        4.51620
H         -4.83820       -2.36060       -2.98490
H         -4.11820       -3.70010       -3.95640
H         -3.66390       -1.99210       -4.32050
H         -3.57930       -0.90080       -1.49100
H         -2.48530       -0.48220       -2.77170
H          1.27890       -1.79520       -2.43810
H         -0.30110       -1.95430       -2.89390
H          0.15330        1.47660       -2.11920
H          0.82260        0.33120       -3.13960
H          1.43490       -2.31050        0.00080
H          2.72290       -1.48930       -0.65510
H          2.45790        0.57030       -1.60310
H          2.82900        0.92570       -0.04190
H         -2.77850       -2.49630        1.82000
H         -3.37380       -2.39220        0.28380
H         -1.03070       -3.64290        0.81110
H         -1.45520       -3.34510       -0.72170
H         -0.15420       -2.85460        2.59480
H          0.96170       -1.72600        2.98190
H         -2.21890       -0.11360        2.59240
H         -1.58770       -1.38810        3.45080
H         -1.83840        2.84860        1.72920
H         -0.42070        2.57580        2.47630
H          0.89060        2.86110        0.57200
H         -0.50840        3.37580       -0.07630
H         -3.05510        1.57090       -1.73640
H         -2.38320        2.77210       -0.88450
H         -3.89890        0.39570        0.08090
H         -3.46820        1.74840        0.87910
H          2.28650       -0.07770        2.15000
H          1.94170        1.61630        1.88250
H          2.58130        1.50180        5.61050
H          2.95210        2.25980        4.01530
H          3.35040        0.51270        4.31150
