84
mol24-A-2
C         -4.26900        0.44610       -3.67730
S         -2.82780       -0.57280       -3.23030
C         -2.30420        0.48810       -1.81780
C         -1.00960        0.06660       -0.98500
C         -0.66730        1.21240        0.08930
O         -1.72290        1.16000        1.06970
C         -1.71980        2.12800        2.10540
O         -0.59750        2.46580       -0.61350
C         -1.69480        3.35900       -0.53240
C          0.78330        0.89970        0.74310
O          0.67640        0.99760        2.17460
C          1.73260        1.60200        2.90080
O          1.81740        1.73430        0.18460
C          1.74960        3.13010        0.42320
C          0.22610       -0.10150       -2.00490
O         -0.24240       -0.97850       -3.04720
C          0.59820       -1.20370       -4.16080
O          0.64540        1.18370       -2.49660
C         -0.04330        1.71820       -3.61640
C          1.47100       -0.73940       -1.21030
O          2.66950        0.00250       -1.49160
C          3.24290       -0.11600       -2.77820
O          1.56570       -2.12060       -1.59640
C          2.79990       -2.77850       -1.35790
C          1.19830       -0.61160        0.38510
C         -0.00540       -1.60770        0.77730
O          0.52360       -2.93940        0.62880
C         -0.28090       -4.02850        1.03390
O         -0.46760       -1.33090        2.11110
C          0.22330       -1.94340        3.18890
C         -1.24000       -1.34710       -0.22080
O         -1.26710       -2.43130       -1.16380
C         -2.47740       -2.64560       -1.87260
O         -2.46220       -1.22580        0.52590
C         -3.00040       -2.38950        1.12140
C          2.49250       -1.02060        1.22450
S          4.07860       -0.14820        0.88050
C          5.04520       -1.06690        2.12010
H         -3.94220        1.47130       -3.94910
H         -4.98310        0.49080       -2.82870
H         -4.77790       -0.01130       -4.55020
H         -2.21630        1.51930       -2.20140
H         -3.18450        0.52120       -1.16280
H         -0.91980        2.88260        2.03330
H         -1.63140        1.60990        3.08280
H         -2.69540        2.65590        2.10820
H         -1.80570        3.86400       -1.51330
H         -2.66480        2.88600       -0.30740
H         -1.47920        4.15530        0.20840
H          2.71640        1.57140        2.40450
H          1.46660        2.64830        3.15330
H          1.84440        1.06490        3.86440
H          1.66100        3.65800       -0.54880
H          2.70160        3.46340        0.88500
H          0.92000        3.45000        1.07460
H          1.19980       -2.12230       -4.01660
H          1.22900       -0.34770       -4.44400
H         -0.05120       -1.40190       -5.03760
H         -0.48980        2.69300       -3.33560
H          0.69270        1.93200       -4.41820
H         -0.83720        1.07560       -4.04650
H          4.34180       -0.01480       -2.66860
H          2.92190        0.72680       -3.42130
H          3.07860       -1.08580       -3.27420
H          3.62860       -2.13150       -1.01740
H          3.12630       -3.26500       -2.29960
H          2.65070       -3.59390       -0.62220
H          0.39610       -4.84160        1.36530
H         -0.84610       -4.43750        0.17390
H         -0.94090       -3.82190        1.88990
H          1.05340       -2.62130        2.90700
H          0.62140       -1.15510        3.85860
H         -0.50260       -2.52680        3.79140
H         -2.31070       -2.47240       -2.95460
H         -2.76130       -3.71280       -1.76840
H         -3.34050       -2.04150       -1.53850
H         -2.78370       -3.32880        0.58810
H         -4.10480       -2.28900        1.12050
H         -2.70080       -2.45020        2.18600
H          2.69440       -2.10300        1.14880
H          2.31960       -0.85580        2.29600
H          4.62370       -0.90030        3.13330
H          6.09270       -0.70300        2.10350
H          5.03830       -2.15100        1.88280
