48
mol23-E-0
C          3.68860        3.67430        0.28430
S          2.76760        2.25330        0.95290
C          1.54400        2.20140       -0.41280
C          0.45630        1.07470       -0.30010
C         -0.23770        1.08750        1.13940
O         -0.48650        2.41020        1.58790
O          0.65320        0.50730        2.06970
C         -1.55590        0.20240        1.09630
O         -2.69740        1.02750        0.97560
O         -1.67730       -0.58020        2.26920
C         -0.63780        1.29840       -1.44650
O         -1.34400        2.49730       -1.20620
O         -0.00200        1.40050       -2.70880
C         -1.65290        0.07910       -1.47890
O         -1.37940       -0.74460       -2.59730
O         -2.97520        0.57210       -1.58350
C         -1.48740       -0.77610       -0.15630
C         -0.04400       -1.45890       -0.19310
O          0.21280       -2.04100        1.07190
O         -0.00110       -2.46980       -1.18530
C          1.06760       -0.37660       -0.52570
O          2.19350       -0.57280        0.30480
O          1.47290       -0.53200       -1.87220
C         -2.57110       -1.91250       -0.06650
S         -4.26370       -1.37070        0.39320
C         -4.98590       -3.04060        0.32730
H          3.02270        4.55880        0.20670
H          4.52730        3.91600        0.96860
H          4.10150        3.42570       -0.71550
H          1.03940        3.19060       -0.44280
H          2.10760        2.09930       -1.36180
H         -1.16400        2.85160        1.02610
H          0.41010        0.81560        2.98200
H         -2.86880        1.47050        1.84680
H         -1.76570        0.02980        3.04680
H         -1.84630        2.73120       -2.03090
H          0.32330        2.33080       -2.82880
H         -1.68890       -0.26860       -3.41240
H         -3.53870       -0.12120       -2.01630
H          0.95180       -2.69640        0.97060
H         -0.40490       -3.29760       -0.81540
H          2.65050       -1.40120        0.00230
H          2.34270       -0.06950       -1.99060
H         -2.63550       -2.44240       -1.04060
H         -2.25790       -2.66000        0.69350
H         -4.88430       -3.46040       -0.69500
H         -4.48020       -3.70480        1.05860
H         -6.06320       -2.97890        0.58420
