156
mol26-B-1
C         -5.12070       -2.36540       -1.11110
S         -4.03380       -1.81490        0.24550
C         -2.71450       -1.08130       -0.83800
C         -1.31310       -0.33750       -0.51040
C         -1.06530       -0.50430        1.26950
C         -2.36770        0.10100        2.12960
C         -2.38770        1.23960        2.99120
C         -3.46780        1.63060        3.79190
C         -4.61200        0.86700        3.85590
C         -4.66350       -0.30780        3.14170
C         -3.58480       -0.69500        2.34410
C         -1.25020       -1.98270        1.92910
C         -1.71300       -3.14890        1.26320
C         -1.89480       -4.38990        1.88520
C         -1.74190       -4.51420        3.25350
C         -1.50910       -3.37640        4.00130
C         -1.34420       -2.14460        3.36270
C          0.53120        0.12460        1.65890
C          1.67400       -0.89010        2.36890
C          2.78680       -0.32590        3.14060
C          3.78380       -1.07230        3.77240
C          3.71250       -2.44560        3.79790
C          2.60220       -3.05920        3.26310
C          1.59500       -2.30840        2.64520
C          0.45760        1.04630        2.99480
C          0.93620        2.37810        3.16720
C          0.75830        3.11900        4.34310
C          0.21190        2.52740        5.46730
C         -0.02180        1.16590        5.45020
C          0.17920        0.44170        4.27290
C         -1.50560        1.37590       -0.95720
C         -2.82380        2.14550       -0.40080
C         -3.13810        3.47010       -0.87310
C         -4.17730        4.25250       -0.36450
C         -5.07870        3.70220        0.52600
C         -4.99790        2.34880        0.79790
C         -3.93770        1.58570        0.29090
C         -1.99630        1.59830       -2.55390
C         -3.39660        1.38340       -2.93450
C         -3.91060        1.54270       -4.22330
C         -3.11680        2.03820       -5.23130
C         -1.83890        2.44830       -4.92430
C         -1.33080        2.30390       -3.62790
C         -0.04920        2.17510       -0.37740
C          0.46610        3.25210       -1.48630
C         -0.29380        4.45150       -1.75870
C          0.08550        5.42300       -2.68870
C          1.32010        5.34340       -3.30320
C          2.19250        4.34440       -2.91390
C          1.78870        3.37330       -1.98980
C         -0.22970        3.37190        0.77920
C         -1.40050        3.68060        1.53620
C         -1.54280        4.77510        2.39790
C         -0.53850        5.70880        2.52470
C          0.59840        5.56450        1.76350
C          0.73720        4.47180        0.90520
C          1.10950        0.90150        0.16390
C          1.45730       -0.32510       -1.04430
C          2.59520       -1.44220       -0.65440
C          2.86990       -2.57760       -1.50530
C          3.91610       -3.47930       -1.29320
C          4.80940       -3.27770       -0.26140
C          4.66240       -2.16280        0.53860
C          3.60500       -1.27190        0.32700
C          2.24270        0.29790       -2.31670
C          3.62470        0.06670       -2.68040
C          4.18350        0.53500       -3.87570
C          3.40220        1.22930       -4.78680
C          2.07010        1.46150       -4.48950
C          1.54590        1.00820       -3.27480
C         -0.05130       -1.06690       -1.49090
C         -0.02370       -2.67790       -1.32420
C         -0.40840       -3.65880       -2.31680
C         -0.22070       -5.03460       -2.13710
C          0.38210       -5.51210       -0.98320
C          0.78130       -4.61030       -0.01160
C          0.55430       -3.24390       -0.20450
C         -0.28050       -1.05400       -3.11630
C          0.74480       -1.49820       -4.03290
C          0.55570       -1.63760       -5.41040
C         -0.68640       -1.41500       -5.96780
C         -1.73690       -1.07510       -5.13970
C         -1.53600       -0.92550       -3.76360
C          2.48680        1.67440        0.52430
S          4.17290        1.67230       -0.25660
C          4.93290        2.84970        0.91010
H         -4.59170       -3.10340       -1.74930
H         -5.43860       -1.49650       -1.72430
H         -6.02120       -2.84690       -0.67850
H         -3.31820       -0.43600       -1.41400
H         -2.54190       -1.89030       -1.49350
H         -1.61140        1.91860        3.11430
H         -3.40260        2.53590        4.38390
H         -5.44160        1.16840        4.48220
H         -5.53230       -0.94850        3.22890
H         -3.72590       -1.69230        1.96520
H         -1.87800       -3.17520        0.23970
H         -2.16630       -5.25640        1.29500
H         -1.89180       -5.47000        3.73850
H         -1.54170       -3.42840        5.08220
H         -1.52210       -1.31330        4.00850
H          2.90370        0.71940        3.35470
H          4.59880       -0.57070        4.27960
H          4.47990       -3.02800        4.29120
H          2.49420       -4.13280        3.36380
H          0.79490       -2.96130        2.42960
H          1.54290        2.87390        2.47560
H          1.10100        4.14460        4.39600
H          0.08870        3.09410        6.38100
H         -0.27730        0.65210        6.36820
H          0.30490       -0.60890        4.42950
H         -2.71370        3.85250       -1.77750
H         -4.32860        5.26040       -0.72980
H         -5.90560        4.28960        0.90370
H         -5.79150        1.87130        1.35830
H         -4.10740        0.55920        0.38890
H         -4.18150        1.14960       -2.24050
H         -4.94940        1.31280       -4.42610
H         -3.51230        2.16890       -6.23030
H         -1.24100        2.92680       -5.69130
H         -0.39830        2.79600       -3.59230
H         -1.07120        4.78100       -1.10550
H         -0.54730        6.28370       -2.86450
H          1.63270        6.10150       -4.00940
H          3.19640        4.32090       -3.31960
H          2.53570        2.69240       -1.75770
H         -2.27700        3.12330        1.54900
H         -2.45880        4.90380        2.96230
H         -0.65540        6.55780        3.18570
H          1.37080        6.32230        1.80760
H          1.61160        4.57810        0.28690
H          2.23450       -2.88450       -2.29440
H          4.02770       -4.34230       -1.93780
H          5.62580       -3.96900       -0.09730
H          5.38780       -1.96720        1.31830
H          3.65730       -0.43580        0.94140
H          4.32630       -0.45630       -2.05260
H          5.22670        0.34710       -4.09620
H          3.82640        1.58300       -5.71740
H          1.44070        1.99450       -5.18980
H          0.56200        1.14700       -3.02420
H         -0.88650       -3.40740       -3.24860
H         -0.53760       -5.72940       -2.90440
H          0.54020       -6.57360       -0.84480
H          1.26060       -4.96090        0.89290
H          0.84790       -2.54370        0.48370
H          1.75480       -1.64680       -3.75330
H          1.38600       -1.91900       -6.04620
H         -0.84020       -1.52890       -7.03300
H         -2.72710       -0.94900       -5.55950
H         -2.42020       -0.75090       -3.24670
H          2.30770        2.71400        0.51970
H          2.74730        1.48460        1.52930
H          4.90960        2.43630        1.93980
H          4.39430        3.81980        0.88140
H          5.98890        3.01780        0.61570
