156
mol26-B-0
C         -4.94560       -2.52260       -1.51010
S         -3.14330       -2.61450       -1.77200
C         -2.72270       -1.07400       -0.82190
C         -1.31900       -0.33240       -0.49940
C         -1.06280       -0.50340        1.27890
C         -2.36040        0.10130        2.14670
C         -2.37520        1.23800        3.01090
C         -3.45100        1.62830        3.81760
C         -4.59560        0.86570        3.88540
C         -4.65170       -0.30740        3.16880
C         -3.57720       -0.69400        2.36520
C         -1.24600       -1.98300        1.93610
C         -1.71310       -3.14730        1.26980
C         -1.89320       -4.38950        1.88990
C         -1.73390       -4.51700        3.25710
C         -1.49630       -3.38110        4.00640
C         -1.33330       -2.14810        3.36980
C          0.53620        0.12310        1.66200
C          1.68140       -0.89440        2.36430
C          2.79840       -0.33300        3.13190
C          3.79770       -1.08180        3.75730
C          3.72520       -2.45510        3.78000
C          2.61170       -3.06630        3.24920
C          1.60230       -2.31320        2.63780
C          0.46990        1.04180        3.00040
C          0.95070        2.37280        3.17340
C          0.77920        3.11120        4.35190
C          0.23760        2.51760        5.47730
C          0.00250        1.15640        5.45830
C          0.19710        0.43470        4.27840
C         -1.51180        1.38230       -0.94140
C         -2.82660        2.15190       -0.37700
C         -3.14180        3.47790       -0.84480
C         -4.17780        4.26020       -0.32950
C         -5.07550        3.70880        0.56410
C         -4.99480        2.35470        0.83260
C         -3.93770        1.59170        0.31890
C         -2.01000        1.60880       -2.53530
C         -3.41230        1.39600       -2.90960
C         -3.93230        1.55880       -4.19550
C         -3.14290        2.05580       -5.20620
C         -1.86310        2.46390       -4.90450
C         -1.34890        2.31610       -3.61080
C         -0.05190        2.17870       -0.36690
C          0.45920        3.25770       -1.47570
C         -0.30080        4.45840       -1.74190
C          0.07500        5.43170       -2.67150
C          1.30650        5.35220       -3.29210
C          2.17980        4.35150       -2.90920
C          1.77950        3.37870       -1.98540
C         -0.22570        3.37310        0.79330
C         -1.39250        3.68130        1.55660
C         -1.52950        4.77400        2.42140
C         -0.52370        5.70640        2.54550
C          0.60940        5.56270        1.77850
C          0.74300        4.47170        0.91710
C          1.10810        0.90280        0.16610
C          1.44890       -0.32150       -1.04660
C          2.58750       -1.44060       -0.66460
C          2.85700       -2.57440       -1.51940
C          3.90330       -3.47750       -1.31430
C          4.80170       -3.27920       -0.28640
C          4.65970       -2.16590        0.51680
C          3.60220       -1.27350        0.31230
C          2.22880        0.30360       -2.32130
C          3.60880        0.07190       -2.69210
C          4.16230        0.54220       -3.88910
C          3.37740        1.23940       -4.79480
C          2.04700        1.47220       -4.49070
C          1.52810        1.01670       -3.27450
C         -0.06260       -1.06080       -1.48760
C         -0.03580       -2.67220       -1.32460
C         -0.42630       -3.65040       -2.31750
C         -0.23910       -5.02680       -2.14180
C          0.36880       -5.50750       -0.99190
C          0.77350       -4.60830       -0.02020
C          0.54700       -3.24130       -0.20900
C         -0.29960       -1.04400       -3.11180
C          0.72090       -1.48710       -4.03430
C          0.52500       -1.62330       -5.41120
C         -0.71960       -1.39820       -5.96210
C         -1.76570       -1.05910       -5.12830
C         -1.55800       -0.91280       -3.75280
C          2.48790        1.67350        0.52160
S          4.17020        1.67140       -0.26740
C          4.93700        2.84550        0.89820
H         -5.34910       -1.58850       -1.95340
H         -5.17750       -2.55560       -0.42520
H         -5.42640       -3.39050       -2.00550
H         -3.20300       -1.30830        0.08750
H         -3.38960       -0.39080       -1.27170
H         -1.59760        1.91590        3.13180
H         -3.38200        2.53220        4.41130
H         -5.42190        1.16650        4.51630
H         -5.52080       -0.94750        3.25870
H         -3.72120       -1.69030        1.98480
H         -1.88310       -3.17110        0.24710
H         -2.16850       -5.25440        1.29910
H         -1.88240       -5.47380        3.74070
H         -1.52390       -3.43560        5.08730
H         -1.50730       -1.31800        4.01820
H          2.91740        0.71170        3.34780
H          4.61560       -0.58210        4.26160
H          4.49430       -3.03940        4.26830
H          2.50310       -4.14010        3.34790
H          0.80050       -2.96480        2.42460
H          1.55460        2.86950        2.48010
H          1.12320        4.13640        4.40540
H          0.11930        3.08240        6.39280
H         -0.24910        0.64080        6.37630
H          0.32240       -0.61640        4.43200
H         -2.72140        3.86190       -1.75030
H         -4.32980        5.26910       -0.69180
H         -5.90000        4.29620        0.94710
H         -5.78610        1.87670        1.39570
H         -4.10800        0.56520        0.41530
H         -4.19410        1.16150       -2.21240
H         -4.97230        1.33040       -4.39390
H         -3.54300        2.18910       -6.20300
H         -1.26840        2.94350       -5.67330
H         -0.41580        2.80720       -3.57860
H         -1.07480        4.78720       -1.08410
H         -0.55780        6.29340       -2.84230
H          1.61650        6.11160       -3.99810
H          3.18170        4.32780       -3.31980
H          2.52680        2.69650       -1.75830
H         -2.26940        3.12480        1.57230
H         -2.44260        4.90240        2.99050
H         -0.63660        6.55400        3.20900
H          1.38280        6.31960        1.82060
H          1.61450        4.57860        0.29480
H          2.21750       -2.87880       -2.30610
H          4.01090       -4.33930       -1.96140
H          5.61820       -3.97160       -0.12770
H          5.38900       -1.97280        1.29350
H          3.65820       -0.43880        0.92830
H          4.31290       -0.45330       -2.06890
H          5.20420        0.35380       -4.11500
H          3.79740        1.59470       -5.72670
H          1.41470        2.00740       -5.18670
H          0.54560        1.15590       -3.01880
H         -0.90860       -3.39650       -3.24650
H         -0.56040       -5.71960       -2.90910
H          0.52650       -6.56950       -0.85670
H          1.25680       -4.96140        0.88110
H          0.84460       -2.54290        0.47940
H          1.73210       -1.63740       -3.75990
H          1.35190       -1.90410       -6.05160
H         -0.87850       -1.50950       -7.02680
H         -2.75780       -0.93110       -5.54300
H         -2.43950       -0.73850       -3.23130
H          2.30990        2.71320        0.52010
H          2.75300        1.48110        1.52490
H          4.91830        2.42970        1.92710
H          4.39930        3.81620        0.87430
H          5.99180        3.01310        0.59920
