60
mol21-C-0
C          3.08780        3.74470       -0.42390
S          1.70180        2.73260       -1.03390
C          1.60300        1.65610        0.45760
C          0.48910        0.50270        0.48710
C          0.91360       -0.73410       -0.47200
N          2.10320       -1.42500        0.08250
N          1.29830       -0.24470       -1.81400
C         -0.32610       -1.77410       -0.58450
N          0.16440       -3.16800       -0.47240
N         -0.96140       -1.65000       -1.92070
C          0.34410       -0.07170        2.00270
N          1.67240       -0.42640        2.54770
N         -0.22920        0.96420        2.90050
C         -0.62200       -1.37390        1.99860
N         -1.59680       -1.28580        3.11090
N          0.12840       -2.63860        2.21760
C         -1.40610       -1.45960        0.59030
C         -2.09590       -0.03700        0.26540
N         -3.00650        0.34460        1.37280
N         -2.93650       -0.15790       -0.94620
C         -0.94870        1.08140        0.02860
N         -0.88720        1.50240       -1.39190
N         -1.26490        2.29870        0.80920
C         -2.47290       -2.64860        0.65780
S         -4.07610       -2.33960        1.51100
C         -4.74400       -4.00880        1.22160
H          2.80150        4.25870        0.51720
H          3.34010        4.50910       -1.18690
H          3.97860        3.10650       -0.24820
H          1.47050        2.36770        1.28490
H          2.61330        1.24650        0.62160
H          2.46980       -2.13080       -0.59410
H          2.90720       -0.77400        0.19610
H          2.20990        0.25860       -1.75420
H          1.54630       -1.05690       -2.42240
H         -0.61160       -3.84590       -0.63800
H          0.82830       -3.37050       -1.25400
H         -1.80330       -2.25340       -2.01130
H         -0.33530       -2.02180       -2.66880
H          2.23650        0.43680        2.71610
H          1.55760       -0.85450        3.49490
H         -0.13350        0.67770        3.89990
H          0.31200        1.85020        2.88090
H         -1.08980       -1.20300        4.02030
H         -2.08010       -2.20300        3.22750
H          1.06760       -2.65650        1.78040
H          0.29710       -2.80650        3.23620
H         -3.72470        1.03470        1.05400
H         -2.52460        0.77670        2.18510
H         -3.38790        0.76090       -1.16000
H         -3.72930       -0.81590       -0.78180
H         -1.65530        2.17420       -1.62110
H         -0.96540        0.72090       -2.06970
H         -2.20670        2.66030        0.53360
H         -0.60950        3.07320        0.56440
H         -2.76340       -2.99560       -0.34580
H         -2.01050       -3.52910        1.15030
H         -4.09500       -4.76880        1.70400
H         -5.75960       -4.07300        1.66300
H         -4.81340       -4.20970        0.13230
