108
mol2-A-0
C          5.94960        0.78900       -0.14060
S          4.60380       -0.30630       -0.70210
C          3.24120        0.62910        0.08530
C          1.65880        0.28350        0.05010
C          1.38060       -1.27120        0.72750
C          1.97230       -1.38830        2.24730
C          2.46780       -2.70160        2.91660
C          2.36500       -2.34290        0.03400
C          2.18000       -3.86930        0.12890
C         -0.28000       -1.58640        0.64460
C         -0.59700       -2.76870       -0.39570
C         -0.88970       -4.26890       -0.05950
C         -0.79980       -2.22890        2.03450
C         -2.24270       -2.73010        2.25380
C          1.04250        0.39230       -1.55910
C          1.56280        1.74200       -2.32330
C          1.54330        1.94270       -3.87310
C          1.59310       -0.71730       -2.60590
C          3.02980       -0.75620       -3.19380
C         -0.64390        0.27920       -1.46340
C         -1.34210        1.63050       -2.00500
C         -2.87950        1.76780       -2.17900
C         -1.24680       -0.75230       -2.58650
C         -1.44260       -0.36760       -4.08730
C         -1.06950       -0.14990        0.15980
C         -0.68250        1.11420        1.25270
C         -0.97580        0.74940        2.80490
C         -1.24040        1.82930        3.90440
C         -1.67080        2.39830        1.10250
C         -3.12490        2.41990        1.67120
C          0.94360        1.49930        1.04190
C          1.71400        1.73470        2.46290
C          3.08990        2.45650        2.57180
C          1.08770        2.98790        0.42380
C          1.07020        4.29300        1.28480
C         -2.66890       -0.30710        0.28130
S         -3.77140       -1.57210       -0.49290
C         -5.32100       -0.92630        0.21690
H          6.91700        0.38640       -0.50420
H          5.81000        1.80960       -0.55360
H          5.97400        0.83170        0.96810
H          3.44030        1.65870       -0.21000
H          3.59000        0.59890        1.10380
H          2.87680       -0.78550        2.34610
H          1.31310       -1.03770        3.00340
H          3.35800       -3.13990        2.42510
H          2.81180       -2.45870        3.94650
H          1.69170       -3.47020        3.05800
H          3.37340       -2.19910        0.46080
H          2.62520       -2.14810       -0.97630
H          1.76900       -4.28350       -0.81260
H          1.57730       -4.17970        0.98750
H          3.17020       -4.36250        0.24320
H         -1.50620       -2.52950       -0.91290
H          0.16960       -2.81000       -1.15160
H         -1.97830       -4.48640       -0.07930
H         -0.49620       -4.66830        0.88680
H         -0.47870       -4.91180       -0.86720
H         -0.17910       -3.10880        2.21100
H         -0.58790       -1.71430        2.95710
H         -2.22160       -3.60320        2.94160
H         -2.87010       -1.97670        2.76850
H         -2.74930       -3.07010        1.34900
H          2.62120        1.90520       -2.08410
H          1.07740        2.65510       -2.02270
H          2.00580        1.14860       -4.47750
H          2.14100        2.85160       -4.10370
H          0.55320        2.15880       -4.30160
H          1.02980       -0.58050       -3.52670
H          1.31460       -1.74150       -2.40890
H          2.98940       -0.97220       -4.28520
H          3.58820        0.19100       -3.09490
H          3.62040       -1.60500       -2.80010
H         -0.99540        1.78310       -3.02110
H         -0.97060        2.57580       -1.66160
H         -3.10290        2.32530       -3.11530
H         -3.41990        0.80790       -2.24980
H         -3.33450        2.37710       -1.37830
H         -2.25130       -1.03990       -2.32720
H         -0.73120       -1.70420       -2.66720
H         -0.61810        0.21110       -4.53410
H         -1.54870       -1.29360       -4.69380
H         -2.37910        0.20140       -4.25050
H         -1.81760        0.06420        2.92490
H         -0.15770        0.23040        3.23380
H         -0.93240        2.85780        3.65150
H         -0.70110        1.56240        4.84060
H         -2.31310        1.85580        4.18720
H         -1.78270        2.78900        0.11720
H         -1.21010        3.25800        1.58740
H         -3.43310        1.51330        2.21620
H         -3.25070        3.27560        2.37010
H         -3.86780        2.58620        0.86350
H          1.81420        0.89770        3.13110
H          1.07340        2.35640        3.08840
H          3.46960        2.87730        1.62550
H          3.03050        3.29370        3.30150
H          3.86250        1.76530        2.97380
H          0.28590        3.18130       -0.25380
H          2.00910        3.10480       -0.15490
H          0.55250        4.22600        2.25660
H          0.56620        5.10690        0.71820
H          2.09610        4.67020        1.47060
H         -2.95280       -0.38810        1.32060
H         -3.12170        0.62000       -0.03380
H         -5.49310        0.11590       -0.12380
H         -6.16560       -1.55870       -0.12510
H         -5.27660       -0.95720        1.32540
