108
mol2-B-0
C          1.08070       -2.26720       -5.64230
S          1.15460       -2.47460       -3.83200
C          0.48520       -0.83330       -3.41230
C          0.23540       -0.23950       -1.93390
C          1.53450       -0.62200       -0.85090
C          1.82930       -2.19120       -0.45920
C          2.49530       -3.27880       -1.34250
C          2.92920       -0.31720       -1.60880
C          4.33140       -0.68900       -1.05010
C          1.26290        0.24290        0.59140
C          1.50740       -0.67490        1.92690
C          1.38720       -0.16800        3.37950
C          2.39000        1.36690        0.79160
C          3.73310        1.14750        1.54360
C         -1.23570       -0.87500       -1.36840
C         -1.21480       -2.48900       -1.54240
C         -1.69480       -3.20750       -2.83980
C         -2.52260       -0.48600       -2.25740
C         -3.83350       -1.32560       -2.21860
C         -1.45350       -0.31610        0.21030
C         -1.35540       -1.54930        1.24340
C         -2.55460       -2.50660        1.53560
C         -2.98080        0.16100        0.52410
C         -3.54910        0.32820        1.96940
C         -0.30120        0.92740        0.50630
C         -0.38550        2.15730       -0.69910
C         -1.82940        2.87000       -0.84740
C         -2.48430        3.71050        0.28150
C          0.49070        3.48690       -0.31350
C          0.24380        4.89610       -0.93230
C          0.09130        1.47610       -2.16530
C         -0.91820        1.84930       -3.41330
C         -0.91970        3.21590       -4.16760
C          1.41690        2.24260       -2.71410
C          2.09930        1.96240       -4.08110
C         -0.73980        1.55060        1.92160
S          0.14430        2.79400        2.96410
C         -1.10120        2.83800        4.29390
H          1.46610       -3.18800       -6.12590
H          1.70970       -1.40850       -5.95660
H          0.03200       -2.10560       -5.96730
H         -0.42320       -0.81690       -4.00960
H          1.16500       -0.20030       -3.94350
H          2.57270       -2.18980        0.32920
H          1.06780       -2.72140        0.08140
H          3.18620       -2.90300       -2.11640
H          3.11520       -3.95480       -0.71000
H          1.73860       -3.96490       -1.77170
H          2.89490       -0.79650       -2.59770
H          3.08530        0.68570       -1.89820
H          4.93230       -1.16830       -1.85320
H          4.36910       -1.37700       -0.19380
H          4.89750        0.22790       -0.77970
H          1.04160       -1.65480        1.93980
H          2.55520       -1.00030        1.93160
H          1.73260        0.86120        3.52080
H          2.04460       -0.78480        4.03190
H          0.38310       -0.32290        3.81270
H          2.72200        1.74560       -0.15700
H          1.97400        2.20910        1.33420
H          4.46370        1.91810        1.21390
H          3.63350        1.29440        2.63460
H          4.20970        0.17230        1.37830
H         -1.78290       -3.00590       -0.76940
H         -0.22320       -2.86800       -1.44880
H         -1.71570       -2.56930       -3.73940
H         -2.69890       -3.65900       -2.70320
H         -1.04040       -4.07890       -3.06190
H         -2.29310       -0.40540       -3.32630
H         -2.88780        0.47430       -1.97750
H         -4.71510       -0.67350       -2.02880
H         -3.83860       -2.11440       -1.44580
H         -4.02470       -1.79870       -3.20560
H         -0.61750       -2.23650        0.90970
H         -1.04010       -1.23850        2.24310
H         -3.09290       -2.22820        2.46260
H         -3.29140       -2.59230        0.71930
H         -2.17300       -3.53380        1.72710
H         -3.66400       -0.57390        0.10100
H         -3.30810        1.04780        0.02100
H         -4.51200       -0.22030        2.06540
H         -2.90110       -0.03420        2.78300
H         -3.79960        1.38670        2.18640
H         -1.73790        3.60730       -1.64310
H         -2.62000        2.32240       -1.31770
H         -2.98800        4.60020       -0.15680
H         -1.77710        4.09120        1.03960
H         -3.29400        3.15330        0.78690
H          1.56300        3.40010       -0.38990
H          0.36100        3.71300        0.72780
H         -0.64520        5.39710       -0.50390
H          0.14880        4.92150       -2.02430
H          1.10060        5.55880       -0.67990
H         -0.75750        1.17060       -4.25620
H         -1.96910        1.75160       -3.20060
H         -1.14200        4.09550       -3.55160
H         -1.72480        3.19030       -4.93480
H          0.00310        3.42090       -4.73860
H          1.15460        3.29510       -2.82310
H          2.21600        2.41880       -2.01710
H          1.39140        1.72860       -4.89880
H          2.66050        2.86780       -4.40060
H          2.85960        1.16050       -4.02360
H         -1.70860        1.99870        1.79870
H         -0.93770        0.75970        2.62460
H         -2.07960        3.17370        3.89140
H         -0.77070        3.55360        5.07420
H         -1.20780        1.83270        4.75190
