108
mol2-D-2
C          0.18810        5.40780        2.37330
S         -0.83610        3.92150        2.12360
C          0.48620        2.92650        1.30750
C          0.36180        1.42610        0.76140
C         -0.47620        1.62490       -0.73040
C         -1.82450        2.52350       -0.61480
C         -1.88230        4.06770       -0.65440
C          0.25230        2.46420       -1.93730
C          0.95750        3.86550       -1.90880
C         -0.87690        0.08180       -1.28240
C         -0.64990       -0.16820       -2.86850
C         -1.27320        0.73900       -3.96630
C         -2.46470       -0.21710       -1.17400
C         -3.51930       -0.11720       -2.30240
C         -0.54260        0.47400        1.89080
C          0.08400        0.53380        3.40170
C         -0.71050        0.21300        4.70280
C         -2.02340        1.02540        2.25320
C         -2.27180        2.39810        2.93900
C         -0.62390       -1.09860        1.27840
C         -2.13080       -1.73390        1.39210
C         -2.73350       -2.34170        2.69370
C          0.11870       -2.13870        2.26420
C          0.10250       -3.67140        2.01950
C         -0.00940       -1.06200       -0.34210
C          1.68330       -0.70200       -0.36150
C          2.60320       -1.90180        0.21880
C          2.91110       -3.19730       -0.59800
C          2.32680       -0.60090       -1.85630
C          3.81890       -0.88790       -2.23360
C          1.90510        0.72560        0.49170
C          2.84900        1.79690       -0.23760
C          4.35210        1.61500       -0.54620
C          2.67370        0.48100        1.88850
C          4.18010        0.63370        2.17580
C         -0.11420       -2.52910       -1.01250
S         -1.63820       -3.40500       -1.57610
C         -0.78490       -4.90810       -2.15560
H          1.06890        5.16490        3.00350
H          0.52520        5.80800        1.39440
H         -0.41780        6.18180        2.88700
H          1.25660        2.95660        2.05910
H          0.89680        3.55960        0.53620
H         -2.46430        2.27640       -1.47510
H         -2.42950        2.30180        0.22380
H         -2.87680        4.40060       -0.28370
H         -1.83920        4.43930       -1.69960
H         -1.14420        4.58620       -0.02310
H         -0.52780        2.71340       -2.66890
H          0.87770        1.84740       -2.56480
H          0.30140        4.72140       -1.70390
H          1.34520        4.06320       -2.93220
H          1.83900        3.99050       -1.26370
H         -0.98610       -1.19360       -3.11280
H          0.36420       -0.18490       -3.19180
H         -1.97890        1.49610       -3.59870
H         -1.79860        0.11970       -4.72470
H         -0.48230        1.28500       -4.52750
H         -2.59710       -1.24890       -0.94240
H         -2.93780        0.33280       -0.38280
H         -3.27880       -0.76260       -3.17010
H         -3.75620        0.91950       -2.60260
H         -4.48450       -0.51260       -1.91470
H          0.41950        1.55170        3.60140
H          0.95160       -0.08750        3.56850
H         -1.14190       -0.79570        4.73530
H         -1.50220        0.94750        4.93660
H         -0.01140        0.26670        5.56630
H         -2.46030        0.32550        2.97100
H         -2.80910        0.90320        1.53230
H         -2.57360        3.18020        2.21550
H         -1.41800        2.76980        3.53510
H         -3.13370        2.31300        3.63650
H         -2.21210       -2.57850        0.71440
H         -2.94060       -1.07850        1.10400
H         -2.71780       -1.67110        3.56180
H         -2.27310       -3.30470        2.98170
H         -3.80480       -2.58080        2.51430
H         -0.35570       -2.05090        3.24600
H          1.09510       -1.89160        2.62650
H          0.00280       -4.20220        2.99160
H         -0.72480       -4.02650        1.37940
H          1.05760       -4.03320        1.60490
H          2.33650       -2.28660        1.17390
H          3.59000       -1.47780        0.45570
H          2.52140       -4.10090       -0.08760
H          4.00940       -3.35230       -0.66530
H          2.51600       -3.21780       -1.62610
H          2.14720        0.34470       -2.32400
H          1.85420       -1.31910       -2.51820
H          4.50370       -1.16170       -1.41950
H          3.88510       -1.73400       -2.95450
H          4.25690       -0.03050       -2.78460
H          2.82010        2.74350        0.32240
H          2.47000        2.01200       -1.20380
H          4.56920        1.85940       -1.60840
H          4.96580        2.34470        0.02330
H          4.73520        0.61610       -0.34170
H          2.30570        1.17660        2.61400
H          2.48590       -0.49950        2.27960
H          4.51870        1.68120        2.05980
H          4.81600       -0.09280        1.63930
H          4.35450        0.40520        3.25100
H          0.40260       -3.24210       -0.38250
H          0.43260       -2.55640       -1.94900
H         -1.53330       -5.60540       -2.58420
H         -0.04370       -4.65060       -2.94050
H         -0.27460       -5.40840       -1.30650
