36
mol20-A-1
C         -2.47440        4.58410       -0.35040
S         -1.87540        3.48790        0.97450
C         -1.27940        2.17170       -0.15550
C         -0.61390        0.87540        0.46550
C         -1.68050       -0.14740        1.13580
Br        -3.15790        0.78040        2.06550
Br        -2.84760       -1.06890       -0.16100
C         -0.89880       -1.21640        2.05140
Br        -1.71580       -3.01630        2.06260
Br        -1.23340       -0.86580        3.96410
C          0.24100        0.05960       -0.63110
Br        -0.66790       -0.22380       -2.35780
Br         1.69650        1.13630       -1.40850
C          0.76870       -1.30480        0.01900
Br        -0.14230       -2.89280       -0.71840
Br         2.54100       -1.84130       -0.68120
C          0.67100       -1.23700        1.64080
C          1.33140        0.15470        2.11610
Br         1.76990        0.25940        4.03570
Br         3.20270        0.34260        1.52940
C          0.41120        1.37000        1.62690
Br         1.46600        2.98110        1.16790
Br        -0.52480        2.25580        3.12170
C          1.46130       -2.48600        2.21070
S          1.20710       -2.96970        3.96160
C          2.35540       -4.38210        3.91090
H         -3.26350        4.07400       -0.94110
H         -2.90350        5.49990        0.10500
H         -1.63460        4.87420       -1.01550
H         -2.14470        1.88040       -0.78250
H         -0.56150        2.66910       -0.83640
H          1.21330       -3.38660        1.61590
H          2.54990       -2.32540        2.08410
H          2.37650       -4.86630        4.90870
H          2.01520       -5.12460        3.15940
H          3.37870       -4.03390        3.65970
