24
mol28-A-2
C          2.02810       -1.54480        5.74080
S          2.31510       -0.54720        4.24580
C          0.84540       -1.17380        3.37030
Si         0.72340       -0.37800        1.68380
Si        -1.06390       -1.14650        0.57950
Si        -1.05160       -0.36430       -1.51580
Si         2.55430       -0.86740        0.49980
Si         2.53740        0.27780       -1.42150
Si         0.52590        1.20800       -1.72630
Si         0.20780        2.74990       -0.14040
Si         0.57130        1.84590        1.87300
C          0.42480        2.01850       -3.40710
S          0.68230        0.77290       -4.71160
C          0.50570        1.95950       -6.08040
H          2.04470       -2.62540        5.48750
H          2.83270       -1.33580        6.47520
H          1.05030       -1.28010        6.19430
H          0.92160       -2.27340        3.24050
H         -0.07150       -0.93010        3.94630
H          1.20750        2.80270       -3.47200
H         -0.57690        2.48290       -3.51900
H          0.62730        1.42210       -7.04300
H          1.28560        2.74570       -6.00690
H         -0.50130        2.42540       -6.05380
