48
mol25-B-2
C         -1.72410       -3.72970        3.71730
S         -1.87600       -3.03730        2.04040
C         -0.64090       -1.70570        2.30200
C         -0.34540       -0.72230        1.08760
C          0.42990        0.61060        1.57300
C          1.59060        0.29980        2.44800
N          2.49620        0.07520        3.13430
C         -0.40960        1.40960        2.50260
N         -1.04640        2.03860        3.23760
C          0.87270        1.47180        0.27980
C          0.74640        2.93430        0.51320
N          0.65870        4.07450        0.69450
C          2.33380        1.33850        0.03760
N          3.47600        1.24830       -0.13420
C         -1.76960       -0.27150        0.46230
C         -2.76090        0.08830        1.51470
N         -3.53890        0.36130        2.32800
C         -2.45610       -1.42470       -0.18040
N         -3.00890       -2.31430       -0.67500
C         -1.54670        0.93570       -0.57270
C         -2.45760        0.82320       -1.74640
N         -3.17140        0.74420       -2.65470
C         -1.99140        2.23590       -0.00200
N         -2.35660        3.24490        0.43400
C          0.01200        0.99860       -1.00790
C          0.47660       -0.49570       -1.41430
C         -0.41600       -1.06940       -2.45420
N         -1.09510       -1.52720       -3.27310
C          1.77800       -0.50500       -2.13240
N          2.78920       -0.52970       -2.69640
C          0.52020       -1.42010       -0.09000
C          1.92500       -1.65960        0.33480
N          3.02170       -1.86050        0.64940
C          0.05570       -2.80570       -0.36110
N         -0.29620       -3.88880       -0.57050
C          0.13070        2.00480       -2.23360
S          1.80690        2.58930       -2.69820
C          1.23720        3.63350       -4.07670
H         -2.41080       -4.59540        3.81420
H         -0.68450       -4.07500        3.89540
H         -2.00160       -2.96570        4.47290
H          0.30300       -2.19590        2.61940
H         -1.00010       -1.12040        3.17390
H         -0.46530        2.91710       -2.02320
H         -0.31390        1.54030       -3.13830
H          0.72270        3.01240       -4.83920
H          2.11500        4.12280       -4.54600
H          0.54710        4.41780       -3.70220
