48
mol25-B-1
C         -1.52160       -2.96020        4.43730
S         -1.42250       -1.32410        3.64480
C         -0.70610       -1.94720        2.07460
C         -0.38930       -0.88560        0.93380
C          0.33460        0.43210        1.52790
C          1.46900        0.09430        2.42710
N          2.35340       -0.15160        3.13330
C         -0.55830        1.15450        2.47030
N         -1.23730        1.72340        3.21650
C          0.80440        1.37980        0.30680
C          0.63400        2.82230        0.62230
N          0.51180        3.94720        0.86810
C          2.27640        1.29370        0.11400
N          3.42600        1.23930       -0.01840
C         -1.79970       -0.42900        0.28170
C         -2.83820       -0.15570        1.31450
N         -3.65240        0.05010        2.11190
C         -2.43340       -1.55580       -0.45510
N         -2.94550       -2.42560       -1.02320
C         -1.56760        0.84340       -0.66960
C         -2.43090        0.78250       -1.88240
N         -3.10810        0.74320       -2.82090
C         -2.06480        2.09650       -0.03980
N         -2.47050        3.06880        0.44140
C          0.00430        0.96690       -1.03940
C          0.51990       -0.48930       -1.51630
C         -0.31890       -1.01810       -2.62250
N         -0.95550       -1.44010       -3.49310
C          1.84720       -0.42620       -2.18250
N          2.87910       -0.39430       -2.70740
C          0.53650       -1.49120       -0.24910
C          1.92980       -1.72520        0.21490
N          3.01850       -1.92070        0.55920
C          0.11620       -2.86770       -0.62050
N         -0.20120       -3.94360       -0.90790
C          0.14430        2.04830       -2.19710
S          1.82200        2.69660       -2.56040
C          1.27910        3.80990       -3.89490
H         -1.94680       -2.84340        5.45510
H         -2.18100       -3.63080        3.84800
H         -0.50890       -3.40650        4.52080
H         -1.40390       -2.71570        1.68160
H          0.22600       -2.48160        2.35290
H         -0.48120        2.93270       -1.95570
H         -0.25470        1.62990       -3.14460
H          0.80870        3.22520       -4.71270
H          2.16170        4.34600       -4.29970
H          0.55660        4.55460       -3.50120
