108
mol2-A-2
C          5.86800        1.10930        0.54780
S          4.34840        0.71590        1.47620
C          3.24760        0.59480        0.01840
C          1.66250        0.26010        0.00480
C          1.38330       -1.29450        0.68190
C          1.99580       -1.41980        2.19280
C          2.49180       -2.73840        2.85140
C          2.35040       -2.37100       -0.02840
C          2.15630       -3.89630        0.06500
C         -0.28040       -1.59820        0.62180
C         -0.62030       -2.77550       -0.41710
C         -0.91840       -4.27450       -0.08080
C         -0.78470       -2.24110        2.01720
C         -2.22780       -2.73300        2.25570
C          1.02410        0.37760       -1.59520
C          1.54280        1.72590       -2.36310
C          1.50250        1.93100       -3.91190
C          1.55220       -0.73280       -2.65270
C          2.98000       -0.77980       -3.26110
C         -0.66150        0.27570       -1.47570
C         -1.35800        1.63320       -2.00370
C         -2.89680        1.78150       -2.15550
C         -1.28740       -0.74850       -2.59290
C         -1.50180       -0.35830       -4.08980
C         -1.06690       -0.15500        0.15210
C         -0.65570        1.10340        1.24290
C         -0.92940        0.73630        2.79810
C         -1.17090        1.81490        3.90420
C         -1.63730        2.39460        1.11020
C         -3.08290        2.42450        1.69960
C          0.96980        1.47800        1.01000
C          1.76190        1.70420        2.42040
C          3.14420        2.41630        2.51170
C          1.11530        2.96730        0.39390
C          1.11900        4.27000        1.25850
C         -2.66540       -0.30170        0.29600
S         -3.78740       -1.55700       -0.46580
C         -5.32240       -0.90260        0.26780
H          6.70220        1.24960        1.26530
H          6.12400        0.27550       -0.13850
H          5.73350        2.04610       -0.03180
H          3.80520       -0.04510       -0.66470
H          3.40750        1.57900       -0.38880
H          2.90570       -0.82360        2.28030
H          1.34980       -1.06690        2.95910
H          3.37190       -3.18130        2.34610
H          2.85210       -2.50080        3.87690
H          1.71250       -3.50210        3.00180
H          3.36570       -2.23520        0.38430
H          2.59760       -2.17510       -1.04180
H          1.72920       -4.30510       -0.87170
H          1.56380       -4.20500        0.93120
H          3.14470       -4.39650        0.16380
H         -1.53510       -2.52860       -0.92060
H          0.13520       -2.81980       -1.18390
H         -2.00860       -4.48450       -0.08560
H         -0.51420       -4.67920        0.85880
H         -0.52330       -4.91800       -0.89590
H         -0.16760       -3.12560        2.18250
H         -0.55620       -1.73050        2.93810
H         -2.20280       -3.60820        2.94080
H         -2.84260       -1.97680        2.78130
H         -2.74950       -3.06700        1.35740
H          2.60550        1.88120       -2.13860
H          1.06790        2.64140       -2.05310
H          1.95090        1.13550       -4.52490
H          2.10310        2.83650       -4.14850
H          0.50800        2.15500       -4.32560
H          0.97680       -0.58960       -3.56500
H          1.26950       -1.75560       -2.45450
H          2.92270       -0.99250       -4.35240
H          3.54630        0.16330       -3.16760
H          3.57040       -1.63370       -2.87810
H         -1.02480        1.78630       -3.02420
H         -0.97520        2.57500       -1.66300
H         -3.12970        2.34310       -3.08690
H         -3.44470        0.82550       -2.22110
H         -3.33620        2.39160       -1.34670
H         -2.29000       -1.03000       -2.32010
H         -0.77950       -1.70370       -2.68350
H         -0.67990        0.21600       -4.54670
H         -1.62290       -1.28180       -4.69720
H         -2.43670        0.21750       -4.23800
H         -1.77410        0.05650        2.92820
H         -0.10880        0.21040        3.21390
H         -0.85960        2.84190        3.64970
H         -0.62020        1.54170        4.83180
H         -2.23930        1.84790        4.20230
H         -1.76050        2.78880        0.12770
H         -1.16380        3.24980        1.59080
H         -3.38960        1.51850        2.24650
H         -3.19290        3.27900        2.40260
H         -3.83600        2.59810        0.90310
H          1.86590        0.86470        3.08500
H          1.13460        2.32850        3.05670
H          3.51330        2.83710        1.56120
H          3.10090        3.25180        3.24440
H          3.91760        1.71870        2.90080
H          0.30530        3.16800       -0.27170
H          2.02910        3.07950       -0.19750
H          0.61470        4.20390        2.23740
H          0.61250        5.08900        0.70140
H          2.14990        4.63970        1.43070
H         -2.93500       -0.38360        1.33910
H         -3.11630        0.62940       -0.01000
H         -5.49210        0.14160       -0.06760
H         -6.17600       -1.52830       -0.06390
H         -5.26240       -0.93700        1.37540
