156
mol26-C-2
C         -3.21400       -3.29660       -3.26810
S         -1.58480       -3.29870       -2.44950
C         -1.67470       -1.55090       -1.81900
C         -0.63860       -0.64570       -0.94790
C         -0.41180        0.84610       -1.91770
C         -1.73330        1.66700       -2.42220
C         -1.61840        2.86380       -3.21800
C         -2.66790        3.42360       -3.95260
C         -3.90980        2.82110       -3.96600
C         -4.10210        1.67200       -3.22610
C         -3.04480        1.11210       -2.50340
C          0.03540        0.43140       -3.43680
C         -0.85110        0.28250       -4.57970
C         -0.39110        0.07110       -5.88470
C          0.96710       -0.02200       -6.13850
C          1.85180        0.05430       -5.07790
C          1.36230        0.23430       -3.77980
C          0.70700        1.91560       -1.09770
C          1.93870        2.38040       -2.09910
C          1.68970        2.91870       -3.41510
C          2.67020        3.46850       -4.24500
C          3.97630        3.55910       -3.81680
C          4.29250        3.11400       -2.55190
C          3.30770        2.56820       -1.72130
C          0.22730        3.50680       -0.79210
C         -1.09980        4.09600       -0.74420
C         -1.37850        5.43750       -0.45270
C         -0.36400        6.33840       -0.23370
C          0.93500        5.90810       -0.34930
C          1.21760        4.57210       -0.64190
C          0.88300       -1.59030       -0.78190
C          1.47450       -2.31860       -2.12130
C          0.84960       -2.42850       -3.40790
C          1.41270       -3.11580       -4.49070
C          2.57270       -3.84920       -4.33120
C          3.10400       -3.98430       -3.06450
C          2.52740       -3.30340       -1.98990
C          0.62470       -3.08480       -0.03810
C          0.04380       -4.20040       -0.79680
C         -0.18800       -5.48220       -0.29260
C          0.22690       -5.81590        0.97490
C          0.94010       -4.88990        1.70090
C          1.18940       -3.61150        1.18720
C          2.08200       -0.48330       -0.09360
C          2.93850       -1.23980        1.06350
C          3.18960       -0.74820        2.37250
C          3.98270       -1.40610        3.31990
C          4.68060       -2.54840        2.97420
C          4.65840       -2.96860        1.65820
C          3.87050       -2.29200        0.72320
C          3.50840       -0.16260       -0.95190
C          3.91910       -0.65370       -2.25110
C          5.14590       -0.37800       -2.86730
C          6.14600        0.27460       -2.18490
C          5.94060        0.58930       -0.86300
C          4.70840        0.32660       -0.25940
C          1.19010        1.02820        0.36720
C         -0.20420        0.77940        1.42190
C          0.24740        0.22730        2.87810
C          0.59520       -1.09920        3.02670
C          0.85090       -1.74170        4.24260
C          0.79210       -1.01830        5.42140
C          0.46300        0.32750        5.36840
C          0.18300        0.93670        4.13920
C         -0.95620        2.13300        1.96470
C         -2.17530        2.05190        2.73500
C         -2.77620        3.14250        3.36800
C         -2.17360        4.38300        3.33770
C         -0.96950        4.52430        2.67820
C         -0.38200        3.43420        2.02670
C         -1.31080       -0.31280        0.62900
C         -1.68790       -1.59760        1.57060
C         -1.95910       -2.89940        1.08600
C         -2.44330       -3.95170        1.87030
C         -2.74010       -3.75070        3.20340
C         -2.59200       -2.48580        3.73560
C         -2.12370       -1.43760        2.93880
C         -2.82450        0.25770        0.51280
C         -3.03410        1.57710        0.18240
C         -4.26980        2.23100        0.17360
C         -5.41510        1.52460        0.49870
C         -5.30320        0.18610        0.84320
C         -4.04710       -0.43300        0.86620
C          2.23140        1.97820        1.16210
S          2.34740        2.52700        2.93120
C          3.84940        3.54130        2.72760
H         -3.24610       -2.51480       -4.05520
H         -4.01650       -3.11460       -2.52320
H         -3.38160       -4.28630       -3.73970
H         -1.87350       -1.05640       -2.72850
H         -2.64180       -1.57410       -1.33830
H         -0.79000        3.52020       -3.15050
H         -2.51860        4.35260       -4.48890
H         -4.72670        3.25750       -4.52600
H         -5.07740        1.20140       -3.21040
H         -3.32400        0.27520       -1.96130
H         -1.92130        0.31020       -4.51240
H         -1.09690       -0.01950       -6.70070
H          1.32950       -0.17690       -7.14630
H          2.91580       -0.04250       -5.24940
H          2.00280        0.28220       -2.99590
H          0.79950        2.75030       -3.95860
H          2.41410        3.79260       -5.24630
H          4.73820        3.98270       -4.45810
H          5.30530        3.23260       -2.18670
H          3.67690        2.44220       -0.75270
H         -2.01680        3.66920       -1.03470
H         -2.40440        5.78760       -0.42880
H         -0.58440        7.37470       -0.01270
H          1.74290        6.61830       -0.21980
H          2.27280        4.44210       -0.71850
H         -0.07400       -1.99580       -3.66720
H          0.92460       -3.09530       -5.45730
H          2.99990       -4.38910       -5.16620
H          3.91680       -4.67900       -2.89450
H          2.79720       -3.71400       -1.04210
H         -0.19330       -4.16520       -1.84140
H         -0.66390       -6.23210       -0.91250
H          0.05350       -6.80950        1.36790
H          1.34680       -5.17670        2.66380
H          1.84960       -3.12870        1.85240
H          2.73740        0.11230        2.73780
H          4.06050       -1.01390        4.32620
H          5.30240       -3.05330        3.70200
H          5.31350       -3.76940        1.33910
H          4.16690       -2.47550       -0.28520
H          3.34450       -1.22160       -2.92600
H          5.33070       -0.71050       -3.88220
H          7.10010        0.46990       -2.65710
H          6.75590        0.99900       -0.27940
H          4.78730        0.44420        0.80520
H          0.61050       -1.59830        2.13210
H          1.09740       -2.79500        4.26170
H          0.99780       -1.49690        6.36990
H          0.41460        0.90510        6.28290
H         -0.05350        1.98440        4.22200
H         -2.76220        1.17300        2.80400
H         -3.71740        3.01640        3.88850
H         -2.63080        5.22880        3.83450
H         -0.47470        5.48770        2.67390
H          0.53900        3.68530        1.60150
H         -1.85970       -3.14540        0.08270
H         -2.61420       -4.92420        1.42640
H         -3.11250       -4.56390        3.81280
H         -2.84390       -2.30770        4.77360
H         -2.02650       -0.53340        3.48160
H         -2.15800        2.05760       -0.02880
H         -4.33060        3.27920       -0.08810
H         -6.38180        2.01090        0.48850
H         -6.19040       -0.37790        1.10240
H         -4.08670       -1.47130        1.14670
H          3.19110        1.57380        1.06540
H          2.30160        2.92080        0.68060
H          3.65950        4.36620        2.00970
H          4.69010        2.91350        2.36580
H          4.12510        3.97780        3.70910
