132
mol22-C-1
C          5.72870       -0.13100       -1.18070
S          4.42230        1.02870       -1.70900
C          3.03220        0.28640       -0.71560
C          1.45230        0.48460       -0.40670
C          1.36060        2.30710       -0.46960
N          1.65320        2.72900       -1.97520
C          0.85100        3.65490       -2.81850
C          3.07180        3.11620       -2.40520
N          2.44570        3.14510        0.31110
C          2.67150        4.58550       -0.03100
C          3.71920        2.73370        0.96960
C         -0.20080        2.75100        0.20270
N         -0.82880        3.88310       -0.66510
C         -2.24010        4.01400       -1.04990
C         -0.35550        5.30780       -0.58470
N         -0.11550        3.40820        1.61010
C          1.01670        3.27820        2.50580
C         -0.86910        4.62290        2.07000
C          0.36270       -0.23540       -1.66700
N          0.67670        0.12820       -3.15180
C          0.06940       -0.69940       -4.25020
C          1.96970        0.56360       -3.74150
N          0.55880       -1.81560       -1.68180
C          1.70050       -2.36110       -2.50480
C         -0.44700       -2.92640       -1.89000
C         -1.27760        0.39970       -1.25850
N         -1.89610        1.46100       -2.28040
C         -3.40610        1.57810       -2.48030
C         -1.46070        1.76550       -3.67850
N         -2.30530       -0.79420       -1.32780
C         -3.53100       -0.98850       -0.48700
C         -2.80830       -1.21780       -2.68690
C         -1.11960        1.24120        0.35990
C         -0.46720        0.20290        1.67640
N         -1.40900       -1.04820        1.81010
C         -2.39740       -1.36270        2.88400
C         -1.28250       -2.25680        1.00880
N         -0.47880        0.84650        3.11520
C         -1.50950        1.79670        3.59480
C         -0.32100        0.00600        4.35250
C          1.17630       -0.23800        1.24880
N          2.36830        0.18870        2.19950
C          3.65990       -0.60300        2.14820
C          2.37830        0.61090        3.63840
N          1.23510       -1.78380        1.38150
C          1.17700       -2.45410        2.72220
C          2.07150       -2.64880        0.56060
C         -2.63650        1.52310        0.88190
S         -3.59180        3.01600        1.45820
C         -5.16030        2.14180        1.77860
H          6.68000        0.14820       -1.67760
H          5.87090       -0.07490       -0.08160
H          5.46400       -1.16750       -1.47520
H          3.15650       -0.71740       -0.95260
H          3.53260        0.21130        0.18620
H          1.15240        4.71140       -2.74600
H         -0.20730        3.58830       -2.73300
H          1.04860        3.46190       -3.89300
H          3.20540        4.19600       -2.64020
H          3.37850        2.65020       -3.35530
H          3.88680        2.95890       -1.69650
H          3.72900        4.79550       -0.31650
H          2.48340        5.24800        0.83480
H          2.12680        4.94330       -0.89400
H          3.59290        2.02230        1.75350
H          4.15420        3.56580        1.57120
H          4.52100        2.45210        0.26200
H         -2.78240        3.14050       -0.88210
H         -2.31250        4.30000       -2.11940
H         -2.79940        4.78950       -0.48490
H         -1.11560        6.01680       -0.18970
H         -0.16670        5.74960       -1.57500
H          0.45260        5.47900        0.10280
H          1.50370        2.37710        2.23910
H          1.69280        4.14790        2.46700
H          0.69840        3.24230        3.56420
H         -1.78490        4.82570        1.51260
H         -0.22880        5.52980        2.08570
H         -1.18000        4.54110        3.13280
H         -0.66450       -1.40080       -3.93260
H         -0.30320       -0.07630       -5.08290
H          0.78360       -1.35930       -4.78080
H          1.81950        1.47920       -4.33590
H          2.41140       -0.13120       -4.48960
H          2.78100        0.62070       -3.07090
H          2.39350       -1.63070       -2.86110
H          2.25000       -3.17260       -1.98950
H          1.39670       -2.87850       -3.43940
H         -1.40250       -2.90390       -1.38540
H         -0.65040       -3.19440       -2.94520
H         -0.03060       -3.86680       -1.46730
H         -4.07480        1.44090       -1.64590
H         -3.68010        2.60530       -2.80510
H         -3.81870        0.99260       -3.32380
H         -0.41750        1.86130       -3.87800
H         -1.81350        2.78020       -3.97130
H         -1.92680        1.13060       -4.45470
H         -3.41410       -0.84600        0.56860
H         -4.41080       -0.40170       -0.80340
H         -3.88440       -2.04110       -0.57710
H         -3.91020       -1.11330       -2.82140
H         -2.43440       -0.64410       -3.51400
H         -2.68740       -2.29150       -2.89650
H         -1.95570       -2.02310        3.65660
H         -3.25810       -1.94910        2.49420
H         -2.90130       -0.50660        3.32160
H         -0.68070       -1.95680        0.21320
H         -2.23650       -2.68880        0.67870
H         -0.87660       -3.13300        1.53780
H         -1.14150        2.37320        4.47270
H         -1.72840        2.52500        2.90300
H         -2.46660        1.36220        3.92110
H          0.36710       -0.79990        4.28520
H         -1.26000       -0.34910        4.81660
H          0.09090        0.61810        5.18620
H          3.79220       -1.33070        2.97380
H          3.86190       -1.16160        1.24280
H          4.53310        0.07890        2.23650
H          1.66450        1.34650        3.96470
H          3.31700        1.16840        3.85700
H          2.40670       -0.23140        4.35600
H          1.33520       -3.55630        2.65400
H          0.18520       -2.43950        3.17410
H          1.92390       -2.11490        3.43970
H          2.93090       -3.09760        1.10990
H          1.46990       -3.49830        0.18530
H          2.46670       -2.08760       -0.21870
H         -3.27320        1.25670        0.10680
H         -2.88950        0.82780        1.66570
H         -5.91380        2.87270        2.13640
H         -5.01440        1.36710        2.55980
H         -5.53400        1.66990        0.84630
