180
mol33-D-0
C         -4.44760        3.80650        2.83460
S         -2.70870        3.32790        2.58890
C         -3.08170        1.96150        1.46500
Si        -1.65490        0.93960        0.75960
Si        -0.96050       -0.50870        2.78890
C         -2.20490       -1.80040        3.79680
C         -2.40090       -3.09490        2.98010
C         -3.61460       -1.21400        4.13650
C         -1.60860       -2.24980        5.16860
C         -0.63990        0.77920        4.35420
C          0.25300        0.27080        5.52270
C         -1.95530        1.22130        5.05550
C          0.02520        2.06020        3.84640
Si         0.91620       -1.84420        1.77160
C          2.61180       -1.44520        2.84030
C          2.70510        0.07220        3.08070
C          2.57460       -2.12050        4.24380
C          3.95450       -1.92720        2.18810
C          0.98400       -3.88610        1.97050
C          0.63880       -4.44580        3.37850
C          2.36780       -4.52070        1.64340
C         -0.00090       -4.52110        0.99200
Si        -3.12240       -0.18750       -1.07390
C         -4.89230       -0.69700       -0.13340
C         -5.75180       -1.80400       -0.81350
C         -4.59550       -1.18740        1.28020
C         -5.90540        0.47580        0.04550
C         -4.03020        0.77390       -2.66770
C         -4.76670        2.11130       -2.31570
C         -5.09530       -0.15650       -3.33080
C         -3.06450        1.12140       -3.80570
Si        -1.56650       -2.00130       -1.90850
C         -2.43070       -3.79670       -1.50310
C         -1.44980       -5.01420       -1.58730
C         -3.03340       -3.74180       -0.08540
C         -3.59690       -4.13230       -2.48630
C         -1.26590       -2.35860       -3.92140
C         -0.65190       -3.75580       -4.23470
C         -0.25040       -1.36890       -4.46630
C         -2.51730       -2.27300       -4.84380
Si         0.64970       -1.31670       -0.74370
Si         1.58420        0.96180       -1.42130
C          1.42210        1.52790       -3.32420
C          2.02880        0.63030       -4.45220
C         -0.06520        1.61190       -3.52570
C          2.00600        2.93280       -3.57710
C          3.61310        0.95500       -1.26120
C          4.32940        0.28900       -2.45930
C          4.30570        2.34120       -1.15940
C          4.02090        0.13320       -0.04050
Si         0.14470        2.58370       -0.11480
C          1.42300        3.71880        1.01910
C          0.76190        4.56350        2.15370
C          2.20260        4.73870        0.14320
C          2.50020        2.84400        1.67080
C         -0.88180        4.14580       -1.00490
C         -0.20360        4.91320       -2.19370
C         -1.26010        5.29810       -0.03110
C         -2.22810        3.62720       -1.51020
C          1.92210       -2.61540       -1.29230
S          2.36130       -2.75870       -3.04530
C          3.54730       -4.11730       -2.79790
H         -5.01620        2.96380        3.28020
H         -4.90400        4.09800        1.86570
H         -4.48910        4.67270        3.52600
H         -3.60410        2.40170        0.61590
H         -3.76230        1.27890        1.99300
H         -1.67000       -3.10100        2.18330
H         -2.28710       -4.04170        3.54590
H         -3.39810       -3.21810        2.55050
H         -4.44700       -1.90970        3.90530
H         -3.79150       -1.00240        5.20870
H         -3.78590       -0.26580        3.61850
H         -1.91730       -1.62440        6.02180
H         -1.95870       -3.25350        5.49070
H         -0.51510       -2.26290        5.15690
H          1.12390       -0.24880        5.16050
H         -0.24740       -0.36080        6.26840
H          0.61760        1.11750        6.14650
H         -2.32570        0.48530        5.78220
H         -1.80570        2.12920        5.68070
H         -2.75770        1.44100        4.34590
H         -0.48560        2.98710        4.17380
H          1.04170        2.18720        4.26090
H          0.06820        2.05180        2.75270
H          1.77960        0.53140        2.72840
H          3.55610        0.55150        2.57720
H          2.87720        0.38120        4.12950
H          1.54980       -2.24400        4.60670
H          3.15680       -1.56240        5.00790
H          3.04610       -3.11690        4.27170
H          4.46450       -2.75440        2.71930
H          3.80550       -2.27290        1.16260
H          4.75290       -1.15900        2.18900
H          0.27450       -5.49580        3.33390
H          1.49110       -4.51930        4.07130
H         -0.12240       -3.85570        3.85690
H          3.10190       -4.38660        2.44890
H          2.28520       -5.62820        1.56680
H          2.79780       -4.17660        0.69320
H         -0.81870       -5.08020        1.48920
H         -0.44830       -3.72960        0.38400
H          0.47400       -5.26760        0.32130
H         -6.52450       -1.43420       -1.50730
H         -6.36230       -2.38650       -0.08930
H         -5.13580       -2.49610       -1.35200
H         -4.86710       -2.24470        1.43580
H         -5.19730       -0.65720        2.04610
H         -3.53350       -1.05970        1.50800
H         -6.39970        0.77030       -0.88870
H         -6.76140        0.15680        0.68270
H         -5.48640        1.35950        0.54000
H         -4.64100        2.38380       -1.26530
H         -5.85630        2.10320       -2.52180
H         -4.43770        2.97600       -2.92650
H         -4.85340       -1.21410       -3.18810
H         -5.21040       -0.00790       -4.42570
H         -6.12030        0.01670       -2.96380
H         -2.52160        2.05060       -3.63030
H         -3.57820        1.32840       -4.76930
H         -2.38730        0.29800       -3.96480
H         -1.58870       -5.74940       -0.77000
H         -1.57950       -5.66750       -2.46870
H         -0.40280       -4.68370       -1.60550
H         -4.13080       -3.83040       -0.04290
H         -2.74670       -2.79460        0.37570
H         -2.72650       -4.56850        0.57470
H         -4.40470       -4.72540       -2.00580
H         -4.03340       -3.22940       -2.92390
H         -3.31170       -4.76300       -3.34460
H         -1.39490       -4.56170       -4.26190
H          0.15770       -4.02790       -3.55050
H         -0.23400       -3.81000       -5.26400
H          0.37160       -1.07760       -3.62420
H          0.42590       -1.77210       -5.25100
H         -0.71620       -0.50030       -4.95950
H         -3.22980       -1.52450       -4.52040
H         -2.23250       -2.02500       -5.89060
H         -3.07180       -3.22390       -4.94110
H          2.94040        1.04100       -4.92930
H          2.30110       -0.36400       -4.10280
H          1.35480        0.53360       -5.32690
H         -0.35700        1.77760       -4.58580
H         -0.46630        2.41570       -2.94230
H         -0.55570        0.74720       -3.06600
H          3.07590        2.91580       -3.86130
H          1.92630        3.54210       -2.68160
H          1.49130        3.44300       -4.42070
H          4.35310        0.94240       -3.34520
H          3.91510       -0.69880       -2.68060
H          5.40630        0.11490       -2.23500
H          4.13180        2.85010       -0.21870
H          4.05840        3.02510       -1.97770
H          5.41250        2.22690       -1.18950
H          4.58820       -0.78620       -0.30010
H          4.67550        0.69950        0.65560
H          3.11550       -0.18810        0.48440
H          0.73020        5.65270        1.95440
H         -0.26100        4.24430        2.33760
H          1.30790        4.51240        3.11960
H          1.63440        5.65020       -0.08840
H          3.09880        5.14200        0.66270
H          2.53610        4.29250       -0.79570
H          2.31470        2.63050        2.71700
H          3.49670        3.32440        1.75630
H          2.58260        1.91210        1.11740
H         -0.22930        4.41080       -3.16950
H         -0.76280        5.84860       -2.42010
H          0.81750        5.25020       -1.99430
H         -0.43520        5.99240        0.17570
H         -2.03690        5.95890       -0.47980
H         -1.70220        4.93970        0.89460
H         -2.21440        2.53380       -1.54980
H         -2.48330        4.03540       -2.51110
H         -3.07400        3.92000       -0.85640
H          1.53170       -3.59750       -0.99440
H          2.85480       -2.40260       -0.75500
H          3.97780       -4.40360       -3.77900
H          3.03300       -4.99820       -2.36020
H          4.36870       -3.78940       -2.12710
