36
mol38-A-2
C         -1.85550       -5.69300       -0.04550
S         -2.37030       -3.97530       -0.35380
C         -0.73830       -3.26540        0.02860
Si        -0.76030       -1.40330       -0.15740
Si        -1.64280       -0.76600       -2.12160
Si        -3.81840       -1.26770       -2.17300
Si        -0.69970       -1.83680       -3.84200
Si        -1.33800        1.44850       -2.33950
Si        -3.13340        2.40150       -3.26730
Si         0.37760        1.87800       -3.70400
Si        -2.04570       -0.58930        1.49320
Si        -3.95130       -1.74820        1.62810
Si        -1.00210       -0.86530        3.44870
Si        -2.46790        1.58480        1.11950
Si        -4.51460        1.85150        0.26640
Si        -2.42930        2.71030        3.05020
Si        -0.93320        2.35650       -0.32680
Si         1.10150        1.69700        0.36600
Si         2.68270        2.82110       -0.74230
Si         1.37950        2.15830        2.53520
Si         1.29740       -0.51600        0.02650
Si         2.48440       -0.89570       -1.82880
Si         2.39740       -1.49100        1.70920
C         -1.03480        4.21420       -0.53000
S         -0.46990        5.06400        0.97750
C         -0.74560        6.73490        0.31220
H         -2.71990       -6.36610       -0.21820
H         -1.51570       -5.80660        1.00500
H         -1.03580       -5.97570       -0.73840
H          0.01960       -3.67700       -0.66970
H         -0.45150       -3.51290        1.07170
H         -2.08750        4.48870       -0.74860
H         -0.39190        4.50740       -1.38570
H         -0.46230        7.48180        1.08170
H         -1.81680        6.87140        0.05600
H         -0.11980        6.89400       -0.59050
