180
mol33-C-2
C          1.01290       -3.97870       -4.67150
S         -0.09660       -3.64350       -3.26810
C          0.78760       -2.16390       -2.72170
Si         0.15400       -1.22450       -1.20730
Si         1.00630       -3.00890        0.48820
C          2.98630       -3.49210        0.85470
C          3.71620       -2.46750        1.73000
C          3.88140       -3.67360       -0.41850
C          3.08220       -4.82880        1.65700
C          0.52000       -4.83990       -0.34110
C          1.49360       -5.33980       -1.45280
C         -0.84420       -4.74710       -1.01730
C          0.44770       -6.05210        0.63460
Si        -0.12460       -2.24640        2.62060
C          0.88680       -2.10330        4.41700
C          1.65140       -0.79150        4.46570
C         -0.04120       -2.05770        5.66750
C          1.90970       -3.23250        4.73810
C         -1.39520       -3.71980        3.21160
C         -2.13460       -4.25650        1.97010
C         -0.64680       -4.92760        3.85970
C         -2.45390       -3.26640        4.27230
Si         1.37230        1.05920       -1.12130
C          3.33150        0.69160       -1.68010
C          3.68500       -0.75130       -1.32010
C          3.58420        0.77340       -3.21270
C          4.46560        1.60680       -1.09850
C          1.04480        2.67060       -2.34770
C          1.05640        2.37510       -3.88080
C          2.11660        3.77460       -2.12990
C         -0.29460        3.34230       -2.02330
Si         0.72120        1.78530        1.21500
C          0.04450        3.66410        1.60780
C          0.74200        4.82560        0.84880
C         -1.45090        3.73560        1.30770
C          0.18320        4.07770        3.09160
C          2.42630        1.84520        2.24300
C          2.38870        2.07050        3.79020
C          3.03310        0.49730        1.96890
C          3.40350        2.91260        1.70950
Si        -1.04530        0.06600        1.88420
Si        -3.16140        0.11760        0.40240
C         -4.72440       -0.58410        1.53320
C         -4.23650       -1.73600        2.40810
C         -5.95400       -1.11240        0.74320
C         -5.33030        0.46130        2.51550
C         -4.07040        1.84020       -0.21610
C         -3.20780        2.49490       -1.31000
C         -4.34250        2.90420        0.90380
C         -5.46290        1.55420       -0.85390
Si        -2.39360       -1.12140       -1.65080
C         -2.63620       -0.34050       -3.53310
C         -4.01540        0.29780       -3.86630
C         -1.59750        0.75570       -3.77970
C         -2.43150       -1.39390       -4.65820
C         -3.61200       -2.75800       -1.91530
C         -3.90780       -3.42530       -0.55580
C         -3.04050       -3.84520       -2.88360
C         -5.00330       -2.37180       -2.51060
C         -1.93180        0.75880        3.41430
S         -0.98440        1.11090        4.91930
C         -2.41900        1.70170        5.87120
H          2.04830       -4.14620       -4.30820
H          0.99680       -3.12680       -5.38280
H          0.66480       -4.89140       -5.19660
H          0.75900       -1.46720       -3.55950
H          1.82970       -2.45650       -2.53100
H          3.06440       -2.14820        2.52680
H          4.64480       -2.86720        2.19160
H          4.09030       -1.61600        1.16100
H          4.79470       -3.04510       -0.41520
H          4.31700       -4.68700       -0.53260
H          3.33450       -3.45420       -1.33820
H          3.24250       -5.71390        1.01980
H          2.18860       -5.00040        2.26490
H          3.94700       -4.88090        2.35220
H          2.45790       -5.68850       -1.06240
H          1.08690       -6.25240       -1.94480
H          1.65800       -4.61980       -2.26260
H         -1.20350       -3.71430       -1.00000
H         -0.82060       -5.10580       -2.06630
H         -1.60310       -5.39490       -0.54790
H         -0.26800       -6.83560        0.30220
H          0.15710       -5.74070        1.61800
H          1.38110       -6.63100        0.72950
H          1.11790       -0.10490        3.81380
H          2.71050       -0.89840        4.17980
H          1.70740       -0.31620        5.46900
H         -0.37330       -3.04850        5.99960
H         -0.91090       -1.40810        5.52860
H          0.49130       -1.69160        6.57270
H          1.47160       -4.10270        5.25960
H          2.69970       -2.87640        5.43610
H          2.40970       -3.61260        3.85600
H         -1.91810       -5.30710        1.71820
H         -1.86740       -3.63530        1.11290
H         -3.23170       -4.28140        2.06600
H          0.39080       -4.99440        3.51860
H         -1.15200       -5.89820        3.66560
H         -0.59000       -4.90050        4.96050
H         -2.28170       -3.63230        5.30030
H         -2.50490       -2.17170        4.34390
H         -3.46840       -3.66960        4.08250
H          3.68730       -1.42530       -2.20000
H          4.70560       -0.83600       -0.89020
H          2.95180       -1.14830       -0.61150
H          2.84230        0.23020       -3.79180
H          3.69660        1.79860       -3.58920
H          4.55650        0.30020       -3.48110
H          4.28130        2.68000       -1.19980
H          4.77600        1.39410       -0.06720
H          5.41900        1.43840       -1.64770
H          0.99800        1.30720       -4.07670
H          0.22490        2.86310       -4.43250
H          1.95100        2.75340       -4.41330
H          2.34130        3.91580       -1.07090
H          3.05930        3.58900       -2.66300
H          1.79930        4.75730       -2.54180
H         -0.29710        4.44630       -2.13430
H         -1.08800        3.09130       -2.71740
H         -0.59280        3.06920       -1.01440
H          0.51500        4.85600       -0.21030
H          0.37500        5.80890        1.21910
H          1.82930        4.85150        0.97400
H         -1.70600        4.55500        0.60240
H         -2.07160        3.91750        2.21120
H         -1.77080        2.77610        0.88860
H          1.21890        4.34320        3.35430
H         -0.38650        5.01130        3.30150
H         -0.23700        3.32340        3.76310
H          3.09270        1.40850        4.33330
H          1.39270        1.95110        4.21230
H          2.73710        3.06920        4.12030
H          2.26550       -0.28070        2.03800
H          3.31150        0.42710        0.93690
H          3.93570        0.28800        2.58350
H          3.28310        3.89800        2.19960
H          4.46200        2.62570        1.89420
H          3.24990        3.06770        0.64570
H         -3.15940       -1.85470        2.26020
H         -4.72670       -2.70310        2.17840
H         -4.43760       -1.57570        3.48830
H         -6.70400       -0.34890        0.48570
H         -6.54860       -1.84330        1.33430
H         -5.65310       -1.59690       -0.16850
H         -5.97900        1.19300        2.01600
H         -4.57870        0.98780        3.11870
H         -6.02180       -0.03010        3.23620
H         -2.39710        1.80870       -1.56210
H         -3.74120        2.77000       -2.23990
H         -2.77840        3.46350       -1.01830
H         -3.85620        2.63550        1.84440
H         -4.03430        3.93220        0.62820
H         -5.41050        3.06800        1.14690
H         -5.74860        2.30360       -1.62270
H         -5.50520        0.55790       -1.30420
H         -6.30150        1.61870       -0.14080
H         -4.80940       -0.40210       -4.15840
H         -3.94770        0.95500       -4.76210
H         -4.37670        0.90890       -3.05650
H         -1.03290        0.62980       -4.72460
H         -2.06930        1.74610       -3.91240
H         -0.88590        0.79140       -2.94870
H         -2.26270       -0.91470       -5.64770
H         -1.58280       -2.05610       -4.46600
H         -3.32140       -2.01280       -4.83750
H         -4.97110       -3.67430       -0.36420
H         -3.58490       -2.75040        0.22470
H         -3.42840       -4.39620       -0.40880
H         -1.99210       -3.64930       -3.12680
H         -3.56030       -3.92950       -3.85760
H         -3.13500       -4.87790       -2.48960
H         -5.05380       -2.42340       -3.61030
H         -5.81450       -3.07180       -2.21810
H         -5.30890       -1.36280       -2.22020
H         -2.70040        0.02910        3.70120
H         -2.40280        1.70380        3.11590
H         -3.17590        0.89480        5.96160
H         -2.86920        2.58600        5.37380
H         -2.08260        1.99370        6.88690
