180
mol32-E-0
C          5.72520       -2.04760       -1.20830
S          3.94130       -2.36880       -1.04860
C          3.56390       -0.75550       -0.30010
Si         1.72800       -0.52700        0.10200
Si         0.47100       -0.92140       -1.79220
C          0.61890        0.57600       -2.97260
C          2.02100        1.06220       -3.42250
C          1.90820        2.45840       -4.06200
C          2.74160        0.14100       -4.40800
C          0.98640       -2.53380       -2.69040
C          0.15570       -2.97370       -3.92460
C          0.28120       -4.49530       -4.13230
C          0.57210       -2.28060       -5.22520
Si        -1.72750       -0.98820       -1.09490
C         -2.66610       -0.15610       -2.53170
C         -4.17530        0.12090       -2.30910
C         -5.06870       -0.87420       -3.06000
C         -4.53810        1.55180       -2.73440
C         -2.60460       -2.63410       -0.69350
C         -2.30520       -3.88490       -1.53600
C         -3.14320       -3.94460       -2.82020
C         -2.56430       -5.16090       -0.72080
Si         1.16650       -2.00430        1.76980
C          1.03630       -3.69880        0.89170
C          1.36970       -5.03170        1.60860
C          0.50340       -5.32350        2.83600
C          1.25620       -6.19520        0.61260
C          2.54590       -1.76530        3.06620
C          3.37950       -2.97070        3.53560
C          4.44540       -3.34580        2.49490
C          4.07660       -2.64550        4.86470
Si        -0.89470       -1.34550        2.58010
C         -0.74460       -0.30340        4.16470
C         -0.86290       -1.02120        5.53320
C         -1.12160        0.01130        6.63930
C          0.37000       -1.85280        5.88910
C         -1.85990       -2.94250        2.99720
C         -3.40490       -2.91350        3.01450
C         -3.98530       -2.18110        4.23120
C         -3.95340       -4.34750        2.98840
Si        -1.85160        0.03940        0.97710
Si        -0.78230        2.08760        1.01490
C         -1.55970        2.98940       -0.47110
C         -0.96110        4.31880       -0.96560
C         -1.42550        4.59740       -2.40250
C         -1.35020        5.49400       -0.06650
C         -1.02190        3.08670        2.63580
C         -2.41050        3.71860        2.91850
C         -2.26770        5.10950        3.56310
C         -3.23820        2.84780        3.87280
Si         1.49050        1.64740        0.87750
C          2.41030        2.76860       -0.35870
C          3.06280        4.11110        0.05750
C          3.52170        4.86910       -1.19630
C          2.18760        5.02720        0.91860
C          2.18270        1.78280        2.65850
C          3.60590        2.31720        2.94620
C          3.88650        2.23740        4.45440
C          4.72200        1.59030        2.18850
C         -3.69700        0.13820        1.38650
S         -4.50220        1.69560        0.89950
C         -6.14500        1.21340        1.51450
H          5.89700       -1.16340       -1.85700
H          6.21130       -2.93140       -1.66950
H          6.17280       -1.87330       -0.20770
H          3.89870        0.03340       -0.99530
H          4.14570       -0.66850        0.63210
H          0.16910        1.40270       -2.39690
H         -0.03420        0.43140       -3.85230
H          2.66510        1.13920       -2.53840
H          1.37240        3.16970       -3.40260
H          2.91960        2.87460       -4.25760
H          1.35150        2.40140       -5.02220
H          3.73040        0.57480       -4.67060
H          2.16510        0.03350       -5.34800
H          2.94990       -0.83990       -3.95540
H          0.91660       -3.32200       -1.92440
H          2.04910       -2.50540       -2.97150
H         -0.90230       -2.72300       -3.75200
H          1.32700       -4.76470       -4.39530
H          0.00190       -5.06090       -3.22070
H         -0.39140       -4.82860       -4.95130
H          1.66430       -2.38070       -5.39670
H          0.27520       -1.22050       -5.21540
H          0.04440       -2.73640       -6.09060
H         -2.51240       -0.77570       -3.43790
H         -2.14230        0.78760       -2.75980
H         -4.41940        0.02000       -1.24310
H         -4.97710       -1.88040       -2.61370
H         -6.13650       -0.58000       -2.97080
H         -4.80170       -0.91610       -4.13760
H         -3.93730        2.28890       -2.16380
H         -5.61000        1.75760       -2.52710
H         -4.34500        1.69670       -3.81920
H         -2.28900       -2.84640        0.33240
H         -3.69930       -2.46150       -0.65010
H         -1.23740       -3.88110       -1.77800
H         -4.21340       -4.12310       -2.58140
H         -2.78630       -4.77490       -3.46570
H         -3.06800       -3.00720       -3.39880
H         -1.94110       -5.17370        0.19660
H         -3.63320       -5.22540       -0.42400
H         -2.30280       -6.05900       -1.32040
H          0.02760       -3.75840        0.44050
H          1.75500       -3.62490        0.06080
H          2.42360       -5.02560        1.92710
H          0.49140       -4.45670        3.52220
H          0.92830       -6.18420        3.39500
H         -0.53100       -5.59420        2.54010
H          1.54070       -7.15120        1.10220
H          1.94120       -6.03430       -0.24760
H          0.21940       -6.28730        0.22690
H          3.24650       -1.01490        2.67120
H          2.06940       -1.28980        3.93450
H          2.71420       -3.82800        3.73700
H          5.20210       -2.53750        2.39710
H          4.95940       -4.28350        2.79550
H          3.98950       -3.50490        1.50180
H          4.70660       -3.50140        5.18900
H          4.71970       -1.74440        4.76200
H          3.32570       -2.45940        5.66000
H         -1.58510        0.40940        4.09390
H          0.18510        0.28900        4.13560
H         -1.72570       -1.70440        5.53200
H         -0.28840        0.74510        6.69250
H         -1.22050       -0.49300        7.62450
H         -2.06800        0.55850        6.44070
H          1.25220       -1.19520        6.03690
H          0.19200       -2.40720        6.83520
H          0.57490       -2.60320        5.10040
H         -1.49330       -3.35220        3.95830
H         -1.55360       -3.65850        2.22010
H         -3.76710       -2.42920        2.09630
H         -3.57050       -1.16060        4.32710
H         -5.08680       -2.08590        4.12260
H         -3.77470       -2.74400        5.16550
H         -3.60970       -4.91560        3.87970
H         -3.60980       -4.87780        2.07670
H         -5.06440       -4.33580        2.97540
H         -1.51860        2.25840       -1.28710
H         -2.62980        3.15710       -0.27040
H          0.13130        4.24960       -0.99100
H         -0.96840        5.53670       -2.78090
H         -2.53210        4.69200       -2.44490
H         -1.11170        3.77230       -3.07740
H         -0.86220        5.38120        0.91460
H         -0.99300        6.45140       -0.50240
H         -2.45170        5.55080        0.06710
H         -0.72240        2.45610        3.49300
H         -0.26860        3.89350        2.58970
H         -2.96530        3.84810        1.96890
H         -1.73690        5.81500        2.89660
H         -1.70260        5.04120        4.51780
H         -3.27030        5.54090        3.77170
H         -3.28980        1.81430        3.51060
H         -2.78250        2.82650        4.88660
H         -4.27450        3.24020        3.95130
H          1.73990        2.90920       -1.21460
H          3.24890        2.15840       -0.73070
H          3.98850        3.88720        0.62110
H          2.65100        5.14240       -1.83100
H          4.21380        4.23870       -1.79520
H          4.06120        5.79740       -0.90990
H          1.71480        4.47230        1.74520
H          2.82000        5.82010        1.37170
H          1.41530        5.53280        0.31230
H          2.07030        0.80110        3.12210
H          1.49870        2.44660        3.21210
H          3.64050        3.39210        2.69370
H          3.86700        1.18150        4.80270
H          4.88280        2.67170        4.68540
H          3.12290        2.81320        5.02010
H          4.53380        1.58670        1.10120
H          5.68610        2.11710        2.35210
H          4.84090        0.55060        2.55080
H         -3.82950       -0.00740        2.46690
H         -4.21880       -0.68880        0.87350
H         -6.85820        2.04150        1.32620
H         -6.49950        0.30560        0.98300
H         -6.10110        1.01810        2.60630
