36
mol38-D-2
C         -0.13530       -4.60620       -3.18040
S         -1.66020       -3.66930       -2.85200
C         -0.90770       -2.01170       -2.98380
Si        -2.14810       -0.61860       -2.70770
Si        -4.12480       -1.53750       -2.16130
Si        -4.73820       -3.08220       -3.65330
Si        -3.94630       -2.59460       -0.20200
Si        -5.68310        0.07110       -2.04430
Si        -6.93080        0.09490       -3.89700
Si        -7.08250       -0.30940       -0.34430
Si        -2.48040        0.80410       -4.43610
Si        -0.55740        1.52820       -5.32370
Si        -3.60770       -0.22030       -6.07000
Si        -3.64810        2.58580       -3.71020
Si        -5.15180        3.23470       -5.23000
Si        -2.27350        4.32030       -3.39050
Si        -4.67840        2.05730       -1.78750
Si        -3.12820        1.86870       -0.17400
Si        -2.33650        3.86240        0.45430
Si        -4.04620        0.95140        1.64380
Si        -1.44790        0.58990       -0.94530
Si        -0.69790       -0.75210        0.67770
Si         0.28420        1.85570       -1.56630
C         -6.01200        3.29250       -1.34110
S         -5.35720        4.99080       -1.35480
C         -6.93930        5.75840       -0.88740
H          0.24400       -4.37510       -4.19720
H          0.63460       -4.35640       -2.42600
H         -0.35750       -5.69090       -3.11770
H         -0.05490       -1.89250       -2.28450
H         -0.50410       -1.91100       -4.01110
H         -6.39990        3.04370       -0.33150
H         -6.83230        3.20380       -2.08330
H         -7.27010        5.37870        0.10160
H         -7.71170        5.53660       -1.65300
H         -6.80290        6.85730       -0.82290
