84
mol36-D-2
C         -1.39290        5.70480        0.68920
S         -1.45140        3.91140        0.98980
C         -0.04050        3.53780       -0.09760
Si         0.31230        1.69870       -0.12280
Si         1.96770        1.19700       -1.55550
C          3.49110        2.18050       -1.18770
C          4.52190        2.20090       -2.03220
C          1.41120        1.57530       -3.27760
C          1.17750        2.82780       -3.66860
Si         2.46960       -0.98140       -1.38960
C          2.67580       -1.69100       -3.08490
C          3.72730       -1.38060       -3.84250
C          4.04010       -1.17570       -0.43320
C          4.62910       -2.36420       -0.30400
Si        -1.56280        0.66750       -0.77520
C         -2.81650        0.77180        0.57950
C         -3.39820        1.92690        0.90100
C         -2.18410        1.51510       -2.29780
C         -3.35840        1.20420       -2.84460
Si        -1.13060       -1.48460       -1.21210
C         -0.99910       -1.68010       -3.04830
C         -1.67820       -2.61140       -3.71870
C         -2.43250       -2.59430       -0.50030
C         -3.72140       -2.45670       -0.80900
Si         0.82950       -2.02540       -0.28490
Si         0.89670       -1.31410        1.83900
C         -0.51230       -2.05050        2.78280
C         -0.58850       -1.94060        4.10910
C          2.48560       -1.87750        2.60280
C          2.71990       -3.16690        2.84640
Si         0.80670        0.92700        1.91620
C          2.47630        1.55610        2.41160
C          2.69480        2.17160        3.57380
C         -0.52840        1.46630        3.08530
C         -0.73820        2.75200        3.36840
C          1.06540       -3.88250       -0.26990
S          0.83740       -4.57830       -1.93620
C          1.15060       -6.29440       -1.41920
H         -0.41110        6.11310        1.00740
H         -2.19430        6.19650        1.27760
H         -1.55710        5.91600       -0.38810
H          0.86330        4.07150        0.25930
H         -0.26900        3.86850       -1.13010
H          3.55340        2.73800       -0.26180
H          4.48940        1.65710       -2.97010
H          5.40900        2.77670       -1.79030
H          1.28830        0.76230       -3.98380
H          1.31130        3.66230       -2.98760
H          0.85480        3.02650       -4.68500
H          1.91700       -2.35880       -3.47470
H          3.82030       -1.80110       -4.83820
H          4.50500       -0.71820       -3.47790
H          4.48190       -0.30390        0.03690
H          4.21210       -3.25060       -0.77090
H          5.54510       -2.45510        0.27030
H         -3.06820       -0.12790        1.13090
H         -3.16860        2.84000        0.36170
H         -4.12090        1.96260        1.70920
H         -1.57340        2.28870       -2.74980
H         -3.69280        1.72030       -3.73840
H         -3.99940        0.44900       -2.40650
H         -0.33660       -1.01410       -3.58800
H         -1.56570       -2.69100       -4.79470
H         -2.33830       -3.30640       -3.21190
H         -2.12900       -3.38890        0.17150
H         -4.05470       -1.68610       -1.49280
H         -4.45600       -3.12930       -0.37910
H         -1.27890       -2.59630        2.24720
H          0.17110       -1.40540        4.67100
H         -1.42040       -2.38730        4.64330
H          3.24160       -1.14180        2.85350
H          1.97810       -3.92530        2.61720
H          3.66220       -3.47190        3.28910
H          3.30910        1.37640        1.74140
H          1.89580        2.33750        4.28730
H          3.69520        2.50670        3.82670
H         -1.17560        0.71770        3.52560
H         -1.54150        3.03430        4.04050
H         -0.11130        3.52980        2.94700
H          2.08600       -4.11140        0.09610
H          0.32030       -4.32440        0.42360
H          0.40320       -6.60650       -0.66020
H          2.17380       -6.38520       -0.99880
H          1.06480       -6.95960       -2.30250
