180
mol33-E-1
C         -2.18750        5.69180        0.14120
S         -1.22710        4.35600        0.92010
C         -1.41780        3.20210       -0.46200
Si        -0.61670        1.48740       -0.33190
Si         1.77570        2.42910        0.02470
C          2.01830        4.00650       -1.27580
C          3.49060        4.37390       -1.62150
C          1.31520        3.69720       -2.59360
C          1.39340        5.35010       -0.79740
C          2.39880        3.43890        1.69870
C          1.44520        4.58610        2.18360
C          2.58370        2.42990        2.84940
C          3.78000        4.13490        1.48900
Si         3.16150        0.32580       -0.15780
C          4.51280       -0.17040        1.29670
C          5.47950       -1.30880        0.88440
C          5.45690        0.96220        1.78900
C          3.77290       -0.69690        2.52180
C          4.50670        0.58030       -1.68580
C          5.69390        1.50330       -1.26900
C          3.81900        1.27260       -2.87860
C          5.17940       -0.73380       -2.20230
Si        -1.07220        0.35210       -2.60380
C         -3.08280        0.44420       -2.99940
C         -3.67860       -0.59330       -3.99350
C         -3.86750        0.27360       -1.69580
C         -3.52730        1.80560       -3.60690
C         -0.40150        1.13940       -4.36080
C         -0.74930        2.64830       -4.57230
C         -0.99250        0.39330       -5.58870
C          1.12470        0.97490       -4.46260
Si         0.03220       -1.87230       -2.27240
C         -1.39470       -3.31650       -2.44960
C         -2.64860       -2.91520       -1.65430
C         -1.86140       -3.48820       -3.92140
C         -0.94390       -4.73630       -1.97760
C          1.33160       -2.58380       -3.69190
C          1.57870       -4.11680       -3.59080
C          0.95280       -2.39020       -5.18800
C          2.69560       -1.91230       -3.51440
Si         1.32120       -1.48020       -0.06710
Si        -0.07790       -1.55250        2.12290
C         -0.72680       -3.49490        2.35660
C         -1.06030       -4.09330        0.99350
C         -1.98620       -3.68390        3.25270
C          0.32740       -4.46510        2.96900
C          0.67540       -1.36280        4.02990
C          1.01030        0.11620        4.30960
C         -0.36030       -1.78670        5.12050
C          1.94930       -2.22560        4.33130
Si        -1.69260        0.35010        1.72180
C         -1.93640        1.82090        3.12280
C         -2.07740        1.34630        4.59620
C         -3.18310        2.71320        2.89220
C         -0.74970        2.77780        3.06630
C         -3.59880       -0.40400        1.81230
C         -4.04400       -0.68580        3.28160
C         -4.70890        0.52750        1.22420
C         -3.66280       -1.75580        1.07610
C          2.21480       -3.11570        0.28870
S          3.45520       -3.70590       -0.89120
C          3.85400       -5.21560        0.04450
H         -1.70820        6.00140       -0.81080
H         -3.22610        5.35190       -0.05340
H         -2.21750        6.56210        0.82780
H         -1.01480        3.69520       -1.35920
H         -2.49680        3.05240       -0.57840
H          3.95380        5.10460       -0.94000
H          3.58390        4.88520       -2.60430
H          4.11820        3.49790       -1.64720
H          0.52940        4.43560       -2.85870
H          1.99690        3.72830       -3.46480
H          0.84930        2.71050       -2.51530
H          1.98130        5.84940       -0.01740
H          1.39640        6.09820       -1.62230
H          0.34550        5.25320       -0.47650
H          0.51730        4.60760        1.60460
H          1.86420        5.60960        2.11820
H          1.20070        4.54310        3.26230
H          3.58810        2.41160        3.31230
H          2.37440        1.43400        2.46340
H          1.94160        2.61350        3.72260
H          4.37360        4.20950        2.42530
H          3.71330        5.18830        1.16760
H          4.38280        3.62880        0.73360
H          4.93860       -2.19880        0.55900
H          6.10650       -1.62560        1.74860
H          6.21550       -1.00800        0.12980
H          5.80170        0.80580        2.83470
H          6.41010        1.03990        1.24170
H          4.96950        1.91840        1.74610
H          2.70430       -0.77640        2.30670
H          3.90310       -0.05140        3.40950
H          4.14130       -1.69150        2.85030
H          6.55320        0.95590       -0.84800
H          5.39910        2.25100       -0.52960
H          6.15340        2.03360       -2.13010
H          2.86070        1.66310       -2.54560
H          3.65670        0.61790       -3.74110
H          4.38730        2.10920       -3.33330
H          6.27370       -0.79900       -2.03520
H          5.12360       -0.86750       -3.30040
H          4.74740       -1.60670       -1.71210
H         -3.26420       -0.59240       -5.00370
H         -3.64190       -1.60500       -3.62270
H         -4.76610       -0.40030       -4.13560
H         -4.59900        1.08420       -1.50700
H         -3.17360        0.23310       -0.84820
H         -4.49340       -0.64060       -1.69650
H         -3.02820        2.66260       -3.15020
H         -4.62100        1.97430       -3.49250
H         -3.39370        1.84750       -4.69890
H         -1.02900        3.13020       -3.62700
H          0.07930        3.22460       -5.03430
H         -1.58030        2.83680       -5.27730
H         -1.10850       -0.67860       -5.38450
H         -0.36820        0.50970       -6.50060
H         -1.96520        0.78950       -5.92120
H          1.45810        0.30970       -3.66600
H          1.50410        0.62600       -5.44110
H          1.68040        1.90850       -4.41210
H         -3.61350       -3.06660       -2.17250
H         -2.84680       -3.53990       -0.78630
H         -2.54450       -1.87660       -1.33930
H         -1.87120       -2.52630       -4.44950
H         -1.24670       -4.19490       -4.50140
H         -2.87360       -3.94020       -3.99850
H         -0.71110       -5.44330       -2.79560
H         -1.73480       -5.28150       -1.42160
H         -0.04570       -4.68130       -1.34950
H          2.51330       -4.42140       -4.11170
H          0.81150       -4.70690       -4.11560
H          1.66390       -4.47170       -2.56200
H          1.73070       -2.85050       -5.83840
H          0.01580       -2.84570       -5.51510
H          0.94080       -1.35600       -5.49120
H          3.53510       -2.62870       -3.41450
H          2.68020       -1.27440       -2.62300
H          2.98360       -1.30210       -4.39340
H         -0.46660       -5.00000        0.75280
H         -0.86940       -3.33840        0.22500
H         -2.10430       -4.45190        0.92110
H         -1.77190       -3.84110        4.32140
H         -2.65830       -2.84550        3.16730
H         -2.55960       -4.60230        3.00100
H         -0.01850       -5.52040        2.88770
H          0.46220       -4.33940        4.04970
H          1.30440       -4.42280        2.46550
H          0.62270        0.71110        3.48910
H          0.59770        0.53290        5.24990
H          2.08000        0.32300        4.42910
H         -0.22590       -1.24890        6.08310
H         -1.39010       -1.64070        4.79060
H         -0.28050       -2.83970        5.43660
H          1.81320       -3.01740        5.09440
H          2.31070       -2.73560        3.43210
H          2.78240       -1.65230        4.78280
H         -3.11520        1.17620        4.92670
H         -1.71860        2.10120        5.32890
H         -1.52580        0.43870        4.76160
H         -3.18910        3.56890        3.60500
H         -4.13380        2.20630        3.09170
H         -3.18700        3.15050        1.89160
H         -0.06630        2.47270        2.26990
H         -0.17950        2.81590        4.01360
H         -1.05450        3.82950        2.88310
H         -4.80910       -1.48770        3.35670
H         -4.55200        0.16510        3.76380
H         -3.20430       -0.95810        3.92350
H         -5.36750        0.03250        0.48370
H         -5.45220        0.89410        1.96090
H         -4.26810        1.41610        0.77140
H         -4.20400       -1.71930        0.12510
H         -4.20120       -2.56320        1.61300
H         -2.64720       -2.09760        0.89410
H          1.45310       -3.90080        0.32740
H          2.70550       -3.02580        1.27060
H          4.63550       -5.78240       -0.50130
H          2.95090       -5.85340        0.14350
H          4.23950       -4.95020        1.05090
