84
mol36-A-1
C         -5.35650       -3.64300        0.60570
S         -3.95680       -2.94880       -0.32660
C         -3.24370       -2.08490        1.10770
Si        -1.68660       -1.16500        0.62290
Si        -2.08630        0.33220       -0.99650
C         -3.07990        1.73950       -0.32620
C         -3.61560        2.65380       -1.13490
C         -3.04790       -0.50670       -2.33750
C         -4.31960       -0.86480       -2.16160
Si        -0.12750        1.08470       -1.81320
C         -0.16170        2.93170       -1.93180
C          0.79780        3.60580       -2.56530
C          0.17810        0.37410       -3.49210
C         -0.55450        0.74360       -4.54240
Si        -0.25690       -2.65360       -0.23560
C         -0.81100       -3.11610       -1.93790
C         -1.92440       -3.82040       -2.13870
C         -0.20970       -4.15610        0.83980
C          0.45840       -5.24960        0.47480
Si         1.77500       -1.72910       -0.37010
C          2.76250       -2.20970        1.11630
C          4.03420       -1.83540        1.25250
C          2.61810       -2.36860       -1.88810
C          3.13230       -3.59750       -1.92920
Si         1.52850        0.50120       -0.41980
Si         0.90290        1.17550        1.61760
C          0.22010        2.89020        1.50680
C          1.00060        3.93150        1.21970
C          2.36270        1.15240        2.75110
C          2.28900        1.64430        3.98730
Si        -0.69810       -0.18510        2.38360
C          0.06490       -1.47670        3.46310
C         -0.68320       -2.38090        4.09420
C         -1.89330        0.81080        3.38560
C         -1.59370        1.21600        4.61940
C          3.12600        1.37990       -0.84510
S          3.67760        0.94180       -2.52310
C          5.16780        1.98380       -2.46070
H         -5.96980       -2.82540        1.03850
H         -5.98860       -4.24060       -0.08250
H         -4.98420       -4.30360        1.41620
H         -2.98640       -2.82180        1.89450
H         -3.97740       -1.35990        1.51430
H         -3.23800        1.81270        0.74220
H         -4.19910        3.46880       -0.72010
H         -3.47610        2.60040       -2.21040
H         -2.55960       -0.73000       -3.27840
H         -4.83830       -0.65640       -1.23200
H         -4.85560       -1.36840       -2.95900
H         -0.96860        3.47750       -1.45800
H          1.61990        3.09040       -3.05020
H          0.76110        4.68920       -2.60720
H          0.97550       -0.34640       -3.62360
H         -1.35680        1.46790       -4.43830
H         -0.35480        0.31710       -5.51970
H         -0.21720       -2.79620       -2.78750
H         -2.53260       -4.15800       -1.30610
H         -2.23250       -4.06960       -3.14850
H         -0.74440       -4.14420        1.78280
H          0.98420       -5.29470       -0.47270
H          0.47050       -6.11890        1.12390
H          2.29940       -2.82640        1.87840
H          4.52590       -1.23460        0.49420
H          4.59590       -2.13510        2.13090
H          2.67890       -1.74090       -2.76740
H          3.09430       -4.25140       -1.06440
H          3.61080       -3.95440       -2.83510
H         -0.84120        3.04350        1.67130
H          2.06590        3.80630        1.05730
H          0.57260        4.92590        1.15050
H          3.29770        0.73530        2.39500
H          1.37140        2.08590        4.36060
H          3.16030        1.61920        4.63310
H          1.14060       -1.48010        3.59880
H         -0.21340       -3.12550        4.72790
H         -1.76350       -2.38590        3.98990
H         -2.84710        1.08710        2.95580
H         -0.64920        0.95220        5.08340
H         -2.30620        1.80960        5.18250
H          3.90140        1.09310       -0.10640
H          2.95310        2.47310       -0.78490
H          5.82660        1.65810       -1.62900
H          5.72010        1.88260       -3.41730
H          4.88310        3.04750       -2.32100
