108
mol30-E-2
C          5.93670        0.77660       -1.34450
S          4.39340       -0.18350       -1.43100
C          3.41180        1.02940       -0.49490
Si         1.62030        0.48240       -0.28690
Si         0.77140       -0.14820       -2.30120
C          1.59950       -1.71400       -2.95840
C          3.09370       -1.56260       -3.20850
C          1.07160        1.24050       -3.54390
C          0.59600        0.89720       -4.94760
Si        -1.44410       -0.58780       -2.05680
C         -1.91130       -2.21470       -2.91290
C         -1.73640       -2.22630       -4.43100
C         -2.51600        0.85270       -2.65110
C         -3.41470        0.53140       -3.83550
Si         0.30010        2.12720        0.57980
C          1.03270        2.92240        2.12420
C          2.32270        3.69020        1.85450
C          0.02370        3.44220       -0.75170
C         -0.51730        4.77610       -0.24390
Si        -1.66330        1.19180        1.18900
C         -3.09380        2.31700        0.68990
C         -3.34080        3.44500        1.69050
C         -1.69660        1.04830        3.07030
C         -2.96220        0.38660        3.60250
Si        -1.86430       -0.82460        0.16360
Si        -0.38920       -2.30960        1.07350
C         -0.38520       -3.89630        0.04140
C          0.31320       -5.08830        0.68870
C         -0.81270       -2.74580        2.85770
C         -2.12230       -3.51610        2.98670
Si         1.64490       -1.31370        1.09570
C          2.04130       -0.83430        2.87800
C          3.37410       -0.11160        3.03150
C          2.97900       -2.51390        0.51930
C          3.43900       -3.46100        1.62630
C         -3.67530       -1.30300        0.33740
S         -3.96900       -3.04210       -0.11160
C         -5.75780       -2.97700        0.21450
H          6.74070        0.21600       -1.86350
H          5.80300        1.75830       -1.84460
H          6.23150        0.93050       -0.28550
H          3.86990        1.16920        0.49870
H          3.44040        2.00480       -1.01050
H          1.11790       -1.99760       -3.91270
H          1.43460       -2.54010       -2.24880
H          3.45430       -2.42920       -3.80150
H          3.31710       -0.63650       -3.77630
H          3.64560       -1.56570       -2.25140
H          0.55920        2.15970       -3.20870
H          2.15840        1.44970       -3.58470
H          0.84600        1.73300       -5.63410
H         -0.50180        0.76080       -4.95940
H          1.09630       -0.02020       -5.32070
H         -1.28370       -3.01570       -2.48820
H         -2.96680       -2.45380       -2.67770
H         -0.93510       -1.54220       -4.76190
H         -1.47930       -3.25290       -4.76730
H         -2.68320       -1.94570       -4.93470
H         -1.87080        1.71230       -2.91290
H         -3.17600        1.14510       -1.81620
H         -2.81170        0.36080       -4.74860
H         -4.08340        1.39600       -4.03100
H         -4.04990       -0.35220       -3.61580
H          0.27820        3.62180        2.54040
H          1.21810        2.14160        2.88610
H          3.14210        3.00010        1.58710
H          2.19370        4.42580        1.03540
H          2.62240        4.23680        2.77290
H          0.98790        3.63520       -1.25620
H         -0.68250        3.04010       -1.49920
H         -0.39810        5.54150       -1.03940
H         -1.59580        4.70550       -0.02180
H          0.02270        5.13040        0.65480
H         -2.86900        2.76020       -0.29860
H         -4.01750        1.70920        0.59790
H         -4.00570        4.20650        1.23150
H         -3.84140        3.06210        2.60170
H         -2.39050        3.93490        1.98780
H         -1.61380        2.06740        3.50050
H         -0.82100        0.47740        3.41380
H         -3.87490        0.83410        3.16130
H         -3.00560        0.50830        4.70500
H         -2.95160       -0.69450        3.38100
H         -1.43450       -4.17980       -0.16200
H          0.10940       -3.69580       -0.92140
H          0.01030       -6.01670        0.16030
H          0.04600       -5.20080        1.75700
H          1.40900       -5.00010        0.58420
H         -0.86480       -1.82180        3.46160
H          0.01170       -3.36280        3.27090
H         -2.97630       -2.89790        2.65420
H         -2.28520       -3.78690        4.05080
H         -2.09970       -4.44870        2.38770
H          2.05930       -1.75940        3.49010
H          1.24060       -0.19140        3.27510
H          3.65910       -0.08940        4.10430
H          4.18150       -0.61400        2.46200
H          3.28240        0.93350        2.68690
H          3.85450       -1.93280        0.16490
H          2.58770       -3.10360       -0.33130
H          4.01270       -4.30030        1.18010
H          4.10350       -2.93510        2.34090
H          2.57710       -3.87570        2.18840
H         -4.00480       -1.12940        1.37810
H         -4.27060       -0.64770       -0.33090
H         -6.23720       -2.21770       -0.43780
H         -6.20140       -3.96980       -0.00370
H         -5.94190       -2.72780        1.28040
