36
mol38-B-1
C          3.49050       -1.92290       -4.11580
S          3.01070       -1.55590       -2.39950
C          1.22310       -1.57970       -2.74180
Si         0.24110       -1.23290       -1.18680
Si         0.50240       -3.00320        0.16840
Si        -0.57000       -4.76190       -0.69590
Si         2.65950       -3.57520        0.28120
Si        -0.29330       -2.51470        2.21110
Si        -1.32920       -4.29890        3.07100
Si         1.37790       -2.01410        3.60530
Si        -1.95010       -0.97150       -1.61760
Si        -2.62560       -2.51580       -3.08420
Si        -2.33350        1.02150       -2.55360
Si        -3.09000       -1.13870        0.31220
Si        -4.77500        0.32710        0.37760
Si        -3.99640       -3.17460        0.48260
Si        -1.67840       -0.75760        2.02010
Si        -0.45170        1.06230        1.54810
Si         0.64960        1.74240        3.36950
Si        -1.80850        2.74020        0.97050
Si         0.98400        0.59510       -0.11470
Si         1.15570        2.35050       -1.48750
Si         3.02980        0.21790        0.69770
C         -2.59030       -0.40840        3.61670
S         -3.81480       -1.71010        3.96290
C         -4.39160       -0.95550        5.51470
H          3.12180       -1.12510       -4.79370
H          4.59690       -1.96630       -4.18060
H          3.07340       -2.90320       -4.42710
H          0.92470       -2.57430       -3.13360
H          0.97720       -0.79930       -3.49140
H         -3.10480        0.56990        3.51810
H         -1.85020       -0.35430        4.44180
H         -5.18680       -1.59250        5.95300
H         -4.80850        0.05380        5.31620
H         -3.55240       -0.88020        6.23730
