180
mol33-D-2
C         -5.25580        2.72900        2.77310
S         -4.30040        1.20940        2.47080
C         -3.03460        2.01990        1.46570
Si        -1.62090        0.98050        0.75960
Si        -0.93170       -0.46380        2.79350
C         -2.18420       -1.73810        3.81360
C         -2.39630       -3.03480        3.00460
C         -3.58660       -1.13620        4.15620
C         -1.58630       -2.18600        5.18510
C         -0.59180        0.82910        4.35060
C          0.30110        0.31820        5.51780
C         -1.89980        1.28770        5.05510
C          0.08340        2.10090        3.83310
Si         0.92750       -1.82290        1.77520
C          2.63150       -1.43470        2.83440
C          2.74050        0.08290        3.06640
C          2.59380       -2.10230        4.24160
C          3.96660       -1.93320        2.17900
C          0.97630       -3.86420        1.98460
C          0.63190       -4.41320        3.39700
C          2.35250       -4.51390        1.65490
C         -0.01900       -4.49480        1.01370
Si        -3.10730       -0.14190       -1.06160
C         -4.87790       -0.62920       -0.11080
C         -5.75110       -1.73130       -0.78130
C         -4.57970       -1.11500        1.30410
C         -5.87880        0.55430        0.06630
C         -4.01270        0.82000       -2.65650
C         -4.73460        2.16620       -2.30840
C         -5.08960       -0.10350       -3.31010
C         -3.04860        1.15210       -3.80050
Si        -1.57270       -1.97510       -1.89320
C         -2.45250       -3.75990       -1.47470
C         -1.48380       -4.98730       -1.55670
C         -3.04850       -3.69170       -0.05470
C         -3.62620       -4.08920       -2.45100
C         -1.28440       -2.34590       -3.90560
C         -0.68530       -3.75060       -4.21410
C         -0.26170       -1.36890       -4.46010
C         -2.53890       -2.25290       -4.82300
Si         0.65510       -1.30590       -0.74170
Si         1.60870        0.95980       -1.43530
C          1.44380        1.51740       -3.34050
C          2.03680        0.60800       -4.46630
C         -0.04350        1.61480       -3.53600
C          2.04020        2.91520       -3.60330
C          3.63810        0.93400       -1.28400
C          4.34270        0.25490       -2.48160
C          4.34460        2.31400       -1.19250
C          4.04330        0.11470       -0.06080
Si         0.19070        2.60240       -0.13130
C          1.48490        3.73100        0.99110
C          0.83710        4.58800        2.12400
C          2.27050        4.73860        0.10650
C          2.55640        2.84920        1.64280
C         -0.82450        4.16970       -1.02510
C         -0.14400        4.92420       -2.22090
C         -1.18730        5.33080       -0.05590
C         -2.17790        3.66160       -1.52190
C          1.91250       -2.61990       -1.28890
S          2.34260       -2.77660       -3.04300
C          3.51640       -4.14530       -2.79350
H         -5.61040        3.15460        1.81120
H         -4.62940        3.47420        3.30630
H         -6.13510        2.48300        3.40250
H         -2.58050        2.77770        2.10390
H         -3.54710        2.51350        0.62820
H         -1.66900       -3.05220        2.20470
H         -2.28930       -3.97970        3.57490
H         -3.39650       -3.15060        2.57990
H         -4.42680       -1.82490        3.93230
H         -3.75680       -0.91720        5.22810
H         -3.75100       -0.18910        3.63400
H         -1.88520       -1.55310        6.03640
H         -1.94470       -3.18450        5.51410
H         -0.49300       -2.20990        5.16880
H          1.16540       -0.21170        5.15470
H         -0.20200       -0.30460        6.26900
H          0.67670        1.16460        6.13560
H         -2.27420        0.55910        5.78740
H         -1.73860        2.19730        5.67490
H         -2.70310        1.51140        4.34790
H         -0.41690        3.03450        4.15790
H          1.10290        2.22020        4.24260
H          0.12160        2.08640        2.73930
H          1.81800        0.54930        2.71570
H          3.59400        0.55130        2.55670
H          2.92020        0.39580        4.11280
H          1.56950       -2.21390        4.60960
H          3.18480       -1.54590        5.00020
H          3.05580       -3.10300        4.27280
H          4.47090       -2.76250        2.71240
H          3.80970       -2.28280        1.15600
H          4.77240       -1.17270        2.17240
H          0.25720       -5.45980        3.35960
H          1.48650       -4.49130        4.08650
H         -0.12150       -3.81310        3.87550
H          3.09130       -4.38280        2.45650
H          2.25880       -5.62100        1.58450
H          2.78160       -4.17910        0.70100
H         -0.84000       -5.04320        1.51740
H         -0.46130       -3.70210        0.40350
H          0.44570       -5.24930        0.34490
H         -6.52320       -1.35770       -1.47370
H         -6.36400       -2.30410       -0.05140
H         -5.14410       -2.43220       -1.31880
H         -4.86090       -2.16880        1.46650
H         -5.17290       -0.57490        2.06980
H         -3.51550       -0.99640        1.52660
H         -6.37420        0.84870       -0.86730
H         -6.73500        0.24700        0.70890
H         -5.44900        1.43650        0.55430
H         -4.60170        2.44300       -1.26010
H         -5.82510        2.16770       -2.50980
H         -4.39990        3.02450       -2.92520
H         -4.85730       -1.16270       -3.16280
H         -5.20800        0.04040       -4.40520
H         -6.11130        0.08160       -2.93960
H         -2.49590        2.07680       -3.63240
H         -3.56450        1.35900       -4.76290
H         -2.38010        0.32130       -3.95810
H         -1.62630       -5.71680       -0.73490
H         -1.62370       -5.64380       -2.43410
H         -0.43380       -4.66700       -1.58120
H         -4.14650       -3.76930       -0.00700
H         -2.75060       -2.74480        0.40010
H         -2.74670       -4.51780        0.60850
H         -4.43750       -4.67190       -1.96390
H         -4.05580       -3.18450       -2.89150
H         -3.35090       -4.72720       -3.30720
H         -1.43630       -4.54940       -4.23380
H          0.12460       -4.02700       -3.53200
H         -0.27250       -3.81420       -5.24480
H          0.36680       -1.07930       -3.62220
H          0.40720       -1.78280       -5.24550
H         -0.72120       -0.49840       -4.95580
H         -3.24270       -1.49580       -4.50050
H         -2.25630       -2.01320       -5.87230
H         -3.10300       -3.19890       -4.91290
H          2.95030        1.00730       -4.94950
H          2.30100       -0.38700       -4.11290
H          1.35810        0.51330       -5.33760
H         -0.33830        1.77770       -4.59570
H         -0.43420        2.42560       -2.95520
H         -0.54030        0.75730       -3.06960
H          3.10860        2.88630       -3.89210
H          1.97030        3.52990       -2.71070
H          1.52680        3.42590       -4.44740
H          4.36880        0.90330       -3.37100
H          3.91790       -0.73000       -2.69590
H          5.41880        0.07150       -2.26110
H          4.17970        2.82940       -0.25380
H          4.10040        2.99590       -2.01340
H          5.45010        2.18880       -1.22680
H          4.60050       -0.81150       -0.31790
H          4.70630        0.67830        0.62960
H          3.13710       -0.19490        0.46980
H          0.81500        5.67640        1.91910
H         -0.18810        4.27970        2.31410
H          1.38670        4.53670        3.08780
H          1.71020        5.65440       -0.12750
H          3.17290        5.13590        0.61990
H          2.59560        4.28420       -0.83150
H          2.37340        2.64300        2.69080
H          3.55790        3.32030        1.72150
H          2.62730        1.91360        1.09400
H         -0.17880        4.41700       -3.19400
H         -0.69510        5.86380       -2.44980
H          0.88120        5.25230       -2.02780
H         -0.35480        6.01810        0.14370
H         -1.95960        5.99680       -0.50470
H         -1.62880        4.98150        0.87360
H         -2.17500        2.56800       -1.55580
H         -2.43350        4.06700       -2.52390
H         -3.01810        3.96610       -0.86600
H          1.51380       -3.59660       -0.98410
H          2.84950       -2.41330       -0.75670
H          3.93980       -4.44100       -3.77500
H          2.99550       -5.01890       -2.34900
H          4.34390       -3.82190       -2.12800
