36
mol38-E-2
C         -2.67140       -5.69730        0.11920
S         -3.17150       -4.45450       -1.11210
C         -3.34930       -3.06980        0.06360
Si        -3.88250       -1.46410       -0.76880
Si        -4.10140       -1.86740       -2.97030
Si        -5.09780       -3.83940       -3.31110
Si        -2.07320       -2.01910       -3.89300
Si        -5.29200       -0.22420       -3.93800
Si        -4.44730        0.23620       -5.95560
Si        -7.40380       -0.87120       -4.26910
Si        -5.90790       -0.90110        0.02520
Si        -7.40940       -2.43630       -0.58930
Si        -5.92080       -0.87060        2.25850
Si        -6.48080        1.11650       -0.76840
Si        -6.14370        2.69490        0.77580
Si        -8.65760        1.17730       -1.27010
Si        -5.25620        1.57060       -2.58900
Si        -3.13760        1.93920       -1.94610
Si        -1.78890        1.96040       -3.72950
Si        -2.96740        3.95290       -0.99300
Si        -2.50450        0.31430       -0.52340
Si        -2.59460        1.07360        1.57540
Si        -0.36680       -0.20200       -0.94010
C         -6.01740        3.07580       -3.40030
S         -4.96110        3.69300       -4.74820
C         -6.07080        5.06810       -5.18200
H         -3.48370       -5.85060        0.85950
H         -1.74860       -5.37150        0.63560
H         -2.47080       -6.65770       -0.39800
H         -4.13360       -3.35280        0.79370
H         -2.41550       -2.89750        0.63740
H         -7.01490        2.79590       -3.79810
H         -6.13640        3.86510       -2.62940
H         -7.06240        4.67570       -5.48950
H         -6.18900        5.75090       -4.31500
H         -5.63070        5.63480       -6.02790
