108
mol30-C-1
C          3.71810        4.83060        3.05040
S          2.39190        4.14070        2.01360
C          2.88380        2.40760        2.27790
Si         1.75920        1.20400        1.36140
Si         2.64630       -0.89270        1.21210
C          3.21770       -1.55610        2.88980
C          4.29960       -0.72120        3.56410
C          4.06630       -0.86430       -0.03680
C          5.22230       -1.80940        0.28680
Si         1.00670       -2.27950        0.45610
C          1.49530       -3.50240       -0.89800
C          2.84350       -4.18460       -0.69900
C          0.27200       -3.24380        1.90540
C          1.01720       -4.52940        2.23530
Si        -0.21220        1.14940        2.48450
C         -0.07770        0.27990        4.15590
C          0.90220        0.94490        5.11280
C         -0.75670        2.92950        2.79090
C         -1.87600        3.05330        3.81820
Si        -1.74560        0.06200        1.22690
C         -2.67960       -1.16920        2.31250
C         -3.70930       -0.50890        3.22220
C         -2.97580        1.32430        0.56090
C         -4.02580        0.70260       -0.35010
Si        -0.65610       -1.03360       -0.44340
Si         0.20490        0.46800       -1.90850
C          1.34290       -0.33260       -3.18880
C          0.62900       -1.26850       -4.16270
C         -1.22150        1.30300       -2.82270
C         -0.77800        2.10880       -4.04040
Si         1.39150        1.99600       -0.74080
C          3.04940        2.27210       -1.59910
C          2.94770        3.16280       -2.83180
C          0.42500        3.61850       -0.75300
C          1.09550        4.73510        0.03700
C         -1.80020       -2.14100       -1.45220
S         -2.52560       -3.48320       -0.46250
C         -3.47620       -4.18980       -1.84410
H          3.62800        5.93600        3.06460
H          3.62840        4.44920        4.08900
H          4.70940        4.55650        2.63300
H          2.85020        2.18910        3.35850
H          3.92670        2.26180        1.94710
H          3.60870       -2.58220        2.74330
H          2.34550       -1.62130        3.56770
H          4.61970       -1.22520        4.50000
H          3.92010        0.27790        3.83130
H          5.18590       -0.60110        2.91690
H          4.46880        0.16250       -0.11160
H          3.65040       -1.13160       -1.02500
H          4.86870       -2.75880        0.73410
H          5.94150       -1.32670        0.97620
H          5.77440       -2.04670       -0.64700
H          0.69760       -4.27290       -0.95140
H          1.51290       -2.97660       -1.86660
H          2.84680       -5.15680       -1.23510
H          3.06300       -4.37430        0.36870
H          3.64760       -3.56470       -1.13950
H          0.26920       -2.59890        2.79830
H         -0.77690       -3.50330        1.67450
H          2.07090       -4.31720        2.50160
H          0.97550       -5.23470        1.37970
H          0.53400       -5.01820        3.10710
H         -1.07790        0.27490        4.62940
H          0.22120       -0.76980        4.00730
H          1.93860        0.70950        4.81750
H          0.74590        0.54400        6.13620
H          0.76230        2.04480        5.14130
H          0.12020        3.50640        3.15010
H         -1.10300        3.37110        1.83860
H         -1.55230        2.67470        4.80850
H         -2.15030        4.12310        3.93200
H         -2.77630        2.50110        3.48950
H         -3.21260       -1.88780        1.66380
H         -1.95450       -1.72730        2.93540
H         -4.17460       -1.28180        3.86930
H         -3.23730        0.24880        3.87470
H         -4.51310       -0.03210        2.62490
H         -3.49060        1.80340        1.41560
H         -2.43290        2.11810        0.01920
H         -3.57380        0.41170       -1.31550
H         -4.49240       -0.18550        0.12470
H         -4.82010        1.44950       -0.55850
H          1.81590        0.47810       -3.77620
H          2.15100       -0.88210       -2.67520
H          0.43140       -2.25020       -3.69920
H         -0.32790       -0.84120       -4.52160
H          1.28230       -1.44600       -5.04280
H         -1.93060        0.51840       -3.15680
H         -1.75250        1.97900       -2.12810
H         -1.66950        2.56350       -4.52100
H         -0.27480        1.46610       -4.78930
H         -0.09260        2.92490       -3.74960
H          3.46500        1.29070       -1.90040
H          3.74760        2.74810       -0.88470
H          2.23250        2.74550       -3.56550
H          2.63280        4.18860       -2.55080
H          3.94370        3.22990       -3.31760
H          0.32230        3.95490       -1.80130
H         -0.59460        3.44640       -0.36620
H          0.65090        5.70970       -0.25490
H          2.18660        4.77310       -0.16370
H          0.91690        4.60160        1.11940
H         -1.21380       -2.59800       -2.26750
H         -2.60570       -1.53230       -1.90190
H         -2.79000       -4.50840       -2.65620
H         -4.03820       -5.07440       -1.48120
H         -4.19740       -3.44110       -2.23310
