144
mol3-A-2
C         -0.26100       -5.52650        0.94470
S          1.01110       -4.21950        0.92080
C         -0.13690       -2.80630        0.57150
C          0.03810       -1.21270        0.36600
C          1.73220       -0.82390        0.88840
C          2.86520       -1.97290        0.21650
C          3.27630       -3.30990        0.96540
C          4.11110       -1.88000       -0.77950
C          2.04130       -1.10200        2.48690
C          1.73390       -2.43400        3.26750
C          3.45620       -0.81110        3.09380
C          1.93710        0.91580        0.59190
C          2.26540        2.01560        1.84550
C          2.98520        3.36610        1.51260
C          2.54840        1.93130        3.38960
C          3.36410        1.06830       -0.23320
C          4.02090        2.27030       -1.02870
C          4.64400        0.62710        0.55430
C         -1.19840       -0.38240        1.33460
C         -2.72430       -0.83970        0.85360
C         -3.18100       -2.27310        0.42290
C         -4.02390       -0.41900        1.64400
C         -1.15840       -0.92220        2.99030
C         -2.35480       -1.72310        3.61740
C         -0.59750       -0.31520        4.36650
C         -0.99230        1.33790        1.00460
C         -0.93870        2.09900        2.49870
C         -2.24480        1.99720        3.34410
C         -0.49710        3.57460        2.90000
C         -2.28580        2.25700        0.39050
C         -3.81470        2.00090        0.19600
C         -2.31940        3.83140        0.59740
C          0.41050        1.47080       -0.16860
C          0.10080        0.72550       -1.77700
C          1.39310        1.17550       -2.82180
C          1.17850        2.22140       -3.97670
C          2.68790        0.46590       -3.43160
C         -1.21070        1.34420       -2.69410
C         -1.50170        0.87120       -4.18340
C         -1.70790        2.86790       -2.80540
C         -0.19100       -0.97980       -1.42740
C          0.90380       -1.84570       -2.36030
C          0.85420       -1.68020       -3.91960
C          1.22420       -3.40190       -2.29480
C         -1.62970       -1.66350       -2.13920
C         -3.12640       -1.14320       -2.39290
C         -1.76110       -3.21760       -2.49890
C          0.51910        3.06380       -0.41520
S          1.40310        4.17960       -1.58940
C          0.77280        5.75510       -0.91890
H         -0.98800       -5.33820        1.76090
H         -0.79050       -5.56720       -0.02960
H          0.23090       -6.50400        1.12460
H         -0.65240       -3.24170       -0.23390
H         -0.82010       -2.91940        1.35200
H          2.21930       -2.42540       -0.43000
H          3.60810       -4.07790        0.22810
H          4.16070       -3.19420        1.61240
H          2.52220       -3.91380        1.47580
H          4.35670       -1.05160       -1.43230
H          4.08140       -2.72090       -1.50550
H          5.06700       -2.05380       -0.23620
H          1.37480       -0.38150        2.87960
H          2.62730       -3.05860        3.49010
H          1.36930       -2.20530        4.28400
H          1.05090       -3.12900        2.82160
H          4.21560       -1.57670        2.88400
H          3.39030       -0.77240        4.20520
H          3.93140        0.10920        2.84020
H          1.31510        2.35420        1.93430
H          2.81700        3.76170        0.51820
H          2.62250        4.19010        2.16670
H          4.07430        3.31670        1.70580
H          2.11750        1.13890        3.98440
H          3.63350        2.00880        3.61950
H          2.13380        2.82730        3.90370
H          3.12890        0.39320       -1.00950
H          4.77620        1.84460       -1.72570
H          4.63680        2.95260       -0.40950
H          3.46980        2.89420       -1.70760
H          4.93110        1.35130        1.33790
H          5.53620        0.54090       -0.10630
H          4.61270       -0.35100        0.99710
H         -2.71300       -0.31150       -0.06890
H         -4.12710       -2.20070       -0.14640
H         -2.51900       -2.83300       -0.19150
H         -3.51810       -2.96310        1.20820
H         -4.87940       -0.31160        0.94440
H         -3.99660        0.48010        2.22640
H         -4.44160       -1.19190        2.31570
H         -0.47590       -1.70830        2.86870
H         -2.83690       -2.46440        3.00930
H         -2.01100       -2.37700        4.45130
H         -3.11870       -1.06170        4.07440
H          0.30470        0.27720        4.44670
H         -1.35160        0.21620        4.97620
H         -0.33430       -1.14210        5.05920
H         -0.18590        1.53920        2.99210
H         -2.59770        1.00150        3.50320
H         -2.08740        2.37000        4.38150
H         -3.07980        2.58940        2.93820
H         -1.34510        4.28820        2.97420
H         -0.11520        3.54330        3.94480
H          0.29430        4.11580        2.37900
H         -2.03940        2.13770       -0.58780
H         -4.10720        1.13790       -0.40200
H         -4.25390        2.77010       -0.47940
H         -4.41050        2.16230        1.11300
H         -1.38740        4.37000        0.77900
H         -2.69570        4.33130       -0.32230
H         -3.02220        4.13470        1.40000
H          1.86950        1.77350       -2.11840
H          0.99750        1.72340       -4.95070
H          0.45340        3.01060       -3.84430
H          2.10620        2.81690       -4.14020
H          3.18450       -0.38330       -2.98800
H          2.57760        0.19780       -4.50360
H          3.51970        1.19850       -3.48680
H         -2.01440        0.92840       -2.15330
H         -1.25620       -0.10430       -4.58760
H         -2.59810        0.94560       -4.35490
H         -1.10500        1.55830       -4.95100
H         -1.03620        3.68860       -2.56270
H         -2.69460        3.03160       -2.32870
H         -1.97050        3.18460       -3.83860
H          1.80210       -1.37830       -2.05050
H          0.64420       -0.67920       -4.26420
H          1.82820       -1.97700       -4.36860
H          0.10700       -2.32990       -4.41620
H          2.28750       -3.54750       -2.57670
H          1.12060       -3.96130       -1.36040
H          0.70110       -4.00800       -3.06430
H         -1.35040       -1.37730       -3.10790
H         -3.89830       -1.90850       -2.20560
H         -3.32650       -0.96870       -3.47400
H         -3.55610       -0.28180       -1.88820
H         -1.14520       -3.97000       -2.01260
H         -2.75840       -3.63870       -2.26040
H         -1.67070       -3.39990       -3.59300
H         -0.42210        3.34310       -0.73130
H          0.60900        3.58770        0.49910
H         -0.33170        5.79810       -1.01450
H          1.06460        5.86490        0.14620
H          1.21270        6.59310       -1.49690
