60
mol37-A-1
C         -1.97950        5.30730       -0.16040
S         -1.97890        3.49490        0.00010
C         -0.18510        3.37740        0.29110
Si         0.31760        1.59330        0.52760
Si         2.53060        1.38260        0.71560
C          3.28740        1.57210       -0.92200
C          3.78360        1.69270       -2.01300
C          3.16710        2.65060        1.84490
C          3.58440        3.49200        2.59910
Si         2.99210       -0.64990        1.51620
C          3.27640       -0.55070        3.30470
C          3.45710       -0.48290        4.49380
C          4.46700       -1.30830        0.69160
C          5.44310       -1.74650        0.13790
Si        -0.37060        0.30170       -1.16020
C          0.08520        1.03890       -2.75350
C          0.39400        1.52690       -3.81080
C         -2.17210        0.11790       -1.05940
C         -3.36780       -0.00680       -0.98430
Si         0.59860       -1.70430       -0.98030
C         -0.59380       -2.98350       -1.46100
C         -1.39050       -3.83030       -1.77690
C          2.05090       -1.77720       -2.06410
C          3.01940       -1.81990       -2.77900
Si         1.26030       -2.00240        1.13250
Si        -0.40610       -1.38980        2.48320
C         -1.94760       -2.15640        1.91190
C         -2.96910       -2.66350        1.52400
C         -0.03960       -1.91950        4.17820
C          0.21060       -2.26980        5.30330
Si        -0.61010        0.83260        2.40820
C          0.24470        1.57150        3.82680
C          0.82000        2.05990        4.76590
C         -2.36620        1.28400        2.44110
C         -3.53340        1.58150        2.45640
C          1.79350       -3.76420        1.45480
S          0.36830       -4.88990        1.32110
C          1.33280       -6.38700        1.69340
H         -1.33450        5.61530       -1.00950
H         -3.01570        5.65300       -0.35280
H         -1.61360        5.77350        0.77810
H          0.09160        3.94750        1.20220
H          0.36460        3.78450       -0.58300
H          4.21730        1.79660       -2.97240
H          3.94990        4.23080        3.26260
H          3.61280       -0.42270        5.53860
H          6.29950       -2.13150       -0.34990
H          0.66690        1.95620       -4.73850
H         -4.41790       -0.11720       -0.91530
H         -2.09070       -4.57410       -2.05240
H          3.87150       -1.85510       -3.40530
H         -3.86570       -3.10810        1.18040
H          0.43180       -2.57690        6.29140
H          1.32790        2.48790        5.58940
H         -4.55880        1.84200        2.46830
H          2.56940       -4.04140        0.71140
H          2.22190       -3.82030        2.47710
H          0.65750       -7.26670        1.67310
H          2.12860       -6.52720        0.93240
H          1.78780       -6.30650        2.70260
