84
mol36-D-0
C          0.24280        6.06310        0.42460
S          1.10630        4.46870        0.57440
C         -0.29230        3.48860       -0.05480
Si         0.13540        1.66580       -0.09260
Si         1.82220        1.24480       -1.51470
C          3.30100        2.28620       -1.12490
C          4.33730        2.35620       -1.95990
C          1.26550        1.61550       -3.23840
C          0.98410        2.86080       -3.62080
Si         2.41130       -0.91280       -1.36300
C          2.66080       -1.59820       -3.06240
C          3.70510       -1.23840       -3.80790
C          3.98010       -1.05140       -0.39440
C          4.61610       -2.21600       -0.27000
Si        -1.69030        0.56470       -0.77050
C         -2.95870        0.60570        0.57370
C         -3.58990        1.73330        0.89990
C         -2.33260        1.39990       -2.29130
C         -3.48850        1.04620       -2.85120
Si        -1.16680       -1.56400       -1.22200
C         -1.01170       -1.73750       -3.05860
C         -1.64630       -2.68960       -3.74290
C         -2.42830       -2.73210       -0.53140
C         -3.71900       -2.64440       -0.85040
Si         0.80580       -2.03260       -0.28200
Si         0.82560       -1.33810        1.84850
C         -0.56010       -2.13980        2.77330
C         -0.65220       -2.04490        4.09980
C          2.42970       -1.84310        2.62150
C          2.71430       -3.12400        2.85620
Si         0.64350        0.89670        1.94410
C          2.28170        1.58890        2.45970
C          2.46490        2.20240        3.62910
C         -0.72250        1.37060        3.10580
C         -0.98710        2.64410        3.39800
C          1.11720       -3.87860       -0.28080
S          0.93220       -4.56820       -1.95500
C          1.31070       -6.27460       -1.44990
H         -0.04270        6.24440       -0.63260
H          0.92140        6.87470        0.75780
H         -0.66370        6.06700        1.06520
H         -0.55270        3.81730       -1.08100
H         -1.17250        3.63200        0.60280
H          3.33250        2.83750       -0.19380
H          4.33500        1.81990       -2.90280
H          5.19800        2.96550       -1.70530
H          1.18200        0.80440       -3.95260
H          1.07790        3.69390       -2.93140
H          0.66230        3.05530       -4.63830
H          1.93330       -2.29280       -3.46470
H          3.82380       -1.64580       -4.80630
H          4.45200       -0.54820       -3.43070
H          4.38180       -0.16660        0.08710
H          4.23970       -3.11440       -0.74830
H          5.53000       -2.27450        0.31160
H         -3.17810       -0.30840        1.11520
H         -3.39320        2.65970        0.37060
H         -4.32030        1.73220        1.70190
H         -1.75020        2.20170       -2.73120
H         -3.83600        1.55620       -3.74350
H         -4.10180        0.26160       -2.42530
H         -0.37230       -1.04020       -3.58660
H         -1.52150       -2.75500       -4.81850
H         -2.28190       -3.41550       -3.24800
H         -2.09840       -3.51960        0.13630
H         -4.07770       -1.88200       -1.53050
H         -4.42920       -3.35020       -0.43280
H         -1.29920       -2.71160        2.22620
H          0.08010       -1.48420        4.67290
H         -1.46960       -2.52990        4.62260
H          3.15270       -1.07940        2.88530
H          2.00610       -3.90990        2.61390
H          3.66450       -3.39420        3.30460
H          3.12690        1.44930        1.79540
H          1.65370        2.32920        4.33680
H          3.44860        2.57580        3.89370
H         -1.34230        0.59240        3.53380
H         -1.80700        2.88740        4.06520
H         -0.38890        3.45050        2.98890
H          2.14320       -4.06890        0.09230
H          0.38490       -4.35670        0.40220
H          0.57020       -6.62370       -0.70030
H          2.33310       -6.32740       -1.02120
H          1.25980       -6.93490       -2.33960
