180
mol39-C-2
C          5.60330        2.17850       -2.75890
S          4.13260        2.46250       -1.72400
C          3.68990        0.70990       -1.60690
Si         2.15090        0.37950       -0.59020
Si         0.83560        2.36650       -1.07840
Si         0.95670        2.98270       -3.32680
C          2.63930        2.96830       -4.17240
C         -0.14650        1.90340       -4.29770
C          0.35590        4.70450       -3.76370
Si         1.67790        4.45540       -0.45200
C          0.50140        5.88880       -0.68450
C          3.21250        4.96370       -1.41860
C          2.19540        4.55540        1.31380
Si        -1.36050        1.91480       -0.27460
Si        -3.04140        2.35380       -1.90990
C         -3.32110        1.47130       -3.54730
C         -4.76930        2.20760       -1.18730
C         -2.91040        4.12170       -2.50470
Si        -2.28310        3.49850        1.18430
C         -3.49530        2.79790        2.41810
C         -3.23880        5.00410        0.57430
C         -0.96030        4.27260        2.16390
Si         1.28520       -1.61800       -1.62900
Si         0.83720       -1.71530       -3.91570
C         -0.91210       -1.31080       -4.35540
C          1.00690       -3.38850       -4.74520
C          1.97510       -0.63940       -4.92400
Si         3.05550       -3.14630       -1.81580
C          4.06530       -3.18890       -0.28280
C          2.75690       -4.96020       -2.19610
C          4.29490       -2.66240       -3.14620
Si        -0.65240       -2.10750       -0.37980
Si        -2.67330       -2.67620       -1.41010
C         -3.92520       -3.52100       -0.29920
C         -3.60290       -1.20580       -1.98040
C         -2.56540       -3.81580       -2.89140
Si        -0.40130       -4.32340        0.31610
C         -1.68250       -5.01810        1.50390
C         -0.42760       -5.52640       -1.11330
C          1.22590       -4.58810        1.13810
Si        -1.02320       -0.13330        1.00730
Si         0.54420        0.20950        2.85650
Si        -0.05350       -1.45570        4.42830
C         -1.57040       -1.17850        5.51810
C          1.23530       -1.95150        5.69120
C         -0.55150       -2.99640        3.59370
Si         0.32290        1.83270        4.59850
C         -1.46320        2.09580        5.09910
C          1.12460        1.27940        6.21130
C          1.03440        3.57050        4.58320
Si         2.70520        0.16480        1.79140
Si         4.41120        1.73830        2.21880
C          6.18450        1.15660        2.44720
C          4.12730        2.74060        3.76390
C          4.77970        2.85710        0.78870
Si         3.97840       -1.47690        2.92730
C          3.15080       -3.10950        3.19890
C          5.64340       -1.97620        2.19780
C          4.41630       -0.90970        4.67010
C         -2.56420       -0.64500        1.94190
S         -4.10830       -0.19240        1.10980
C         -5.18180       -0.89700        2.39880
H          5.30910        1.71550       -3.72350
H          6.32270        1.51690       -2.23390
H          6.09350        3.15210       -2.96290
H          3.56340        0.29550       -2.61750
H          4.51570        0.17200       -1.12270
H          3.28840        2.14870       -3.84300
H          2.48450        2.86720       -5.26590
H          3.16860        3.92390       -4.00470
H         -0.36060        1.06770       -3.62030
H          0.33830        1.57760       -5.23690
H         -1.06230        2.45820       -4.56240
H          1.18880        5.43020       -3.72960
H         -0.43620        5.03450       -3.08330
H         -0.04090        4.70370       -4.79940
H          0.72860        6.44110       -1.61580
H         -0.52460        5.50280       -0.71800
H          0.60060        6.60540        0.15540
H          2.93190        5.55610       -2.30780
H          3.79740        4.08430       -1.74030
H          3.85720        5.60700       -0.78660
H          1.53410        5.21620        1.89770
H          2.18360        3.51690        1.68050
H          3.20110        5.00310        1.40160
H         -4.30380        0.95970       -3.54040
H         -3.36460        2.19500       -4.38500
H         -2.54190        0.74500       -3.75900
H         -5.48040        2.75510       -1.83910
H         -4.83650        2.62710       -0.17690
H         -5.08540        1.14900       -1.16090
H         -2.51500        4.15660       -3.53780
H         -3.91030        4.60070       -2.50520
H         -2.23420        4.68310       -1.85300
H         -3.68450        3.54830        3.21220
H         -3.07050        1.90300        2.87070
H         -4.46590        2.54870        1.95690
H         -4.07330        4.73240       -0.09380
H         -2.58020        5.74200        0.08380
H         -3.67830        5.51100        1.45770
H         -0.64020        5.19620        1.65850
H         -1.35170        4.56530        3.15350
H         -0.15480        3.52690        2.22050
H         -1.38480       -0.99870       -3.41840
H         -0.95590       -0.52660       -5.13460
H         -1.43150       -2.19310       -4.77090
H          0.45110       -4.16280       -4.19060
H          2.06290       -3.68050       -4.85920
H          0.57800       -3.32280       -5.76610
H          2.11900        0.31290       -4.40290
H          2.95420       -1.13060       -5.07040
H          1.52560       -0.45770       -5.92120
H          3.96040       -4.16930        0.22010
H          5.13630       -3.03370       -0.51790
H          3.68400       -2.37250        0.34060
H          3.73960       -5.43660       -2.39030
H          2.13010       -5.12190       -3.08320
H          2.31130       -5.47950       -1.33990
H          5.29910       -3.04590       -2.87490
H          4.35880       -1.57260       -3.26260
H          4.03120       -3.11050       -4.11940
H         -4.93530       -3.42360       -0.74680
H         -3.94300       -3.05900        0.70310
H         -3.70740       -4.60150       -0.23270
H         -3.03060       -0.35110       -1.60660
H         -3.67460       -1.21670       -3.08390
H         -4.62990       -1.19300       -1.56580
H         -1.52150       -3.90670       -3.21900
H         -2.96610       -4.81630       -2.63780
H         -3.17970       -3.42120       -3.72510
H         -2.36960       -4.22750        1.84860
H         -1.18260       -5.47080        2.38310
H         -2.26200       -5.82450        1.01270
H          0.15020       -6.43500       -0.84920
H          0.01110       -5.05440       -2.00780
H         -1.46530       -5.84500       -1.31980
H          1.79100       -3.66270        0.96420
H          1.75440       -5.47070        0.73870
H          1.08770       -4.77810        2.21590
H         -1.73250       -2.09790        6.11750
H         -1.42910       -0.35370        6.23620
H         -2.48820       -1.01830        4.92610
H          1.63970       -2.95820        5.48500
H          0.77700       -1.98770        6.70030
H          2.03690       -1.20900        5.70540
H         -0.00770       -3.86620        4.01070
H         -0.30480       -2.81830        2.54570
H         -1.63880       -3.16110        3.72120
H         -1.84090        3.05810        4.71770
H         -2.10060        1.28340        4.72410
H         -1.53720        2.12680        6.20520
H          0.60260        0.42760        6.67120
H          1.06220        2.10470        6.94990
H          2.19190        1.04610        6.05430
H          1.53670        3.77670        3.65220
H          1.78240        3.70450        5.39020
H          0.24240        4.32270        4.76000
H          6.33140        0.61920        3.39230
H          6.83800        2.05210        2.49680
H          6.52250        0.55800        1.58280
H          3.81330        3.76960        3.50850
H          3.37240        2.23460        4.38510
H          5.06850        2.80770        4.34640
H          5.59800        2.45330        0.16340
H          5.09820        3.85390        1.15130
H          3.87940        2.90560        0.18400
H          3.43530       -3.52890        4.18340
H          2.07040       -2.94810        3.14880
H          3.48240       -3.84140        2.44380
H          5.70210       -3.07880        2.10050
H          5.79500       -1.53350        1.20550
H          6.47600       -1.66710        2.85890
H          4.15200       -1.68940        5.40930
H          3.89330        0.03130        4.90700
H          5.50310       -0.76380        4.79540
H         -2.54340       -1.73960        2.08380
H         -2.52810       -0.17100        2.92900
H         -6.24070       -0.77450        2.09270
H         -4.96710       -1.97800        2.52880
H         -5.02160       -0.36460        3.35950
