72
mol34-E-0
C         -3.00860        4.75780       -2.09170
S         -2.62930        2.99700       -1.83310
C         -0.93000        3.29640       -1.26140
Si        -0.04460        1.69770       -0.83770
Si        -1.13440        0.58270        0.84720
C         -2.94210        0.25180        0.42810
F         -3.44220       -0.72410        1.26760
F         -3.08630       -0.15850       -0.87310
F         -3.67620        1.40770        0.61050
C         -1.30450        1.55290        2.44930
F         -1.58010        2.87580        2.16270
F         -2.34650        1.03540        3.19470
F         -0.15740        1.46250        3.20180
Si         0.00350       -1.34010        1.23910
C         -1.09010       -2.82010        0.83210
F         -0.30840       -3.94310        0.64830
F         -1.95950       -3.05940        1.87880
F         -1.83980       -2.58150       -0.29390
C          0.29800       -1.63140        3.07800
F          1.25220       -0.78520        3.57750
F         -0.87900       -1.43380        3.77370
F          0.72050       -2.93260        3.27190
Si         0.14950        0.33790       -2.68740
C          0.68830        1.36810       -4.16940
F          1.80790        2.10620       -3.88690
F         -0.33350        2.23110       -4.51570
F          0.96160        0.54230       -5.24220
C         -1.42750       -0.45200       -3.35580
F         -1.19740       -0.92930       -4.63130
F         -1.81820       -1.50980       -2.57340
F         -2.44260        0.47870       -3.41720
Si         1.60710       -1.33410       -2.18450
C          0.97650       -3.03880       -2.67880
F          1.99010       -3.96240       -2.50990
F         -0.09440       -3.41910       -1.91270
F          0.59160       -3.03190       -4.00520
C          3.10010       -1.16130       -3.32400
F          4.13250       -1.96450       -2.88900
F          3.52420        0.14260       -3.38560
F          2.75140       -1.55520       -4.60110
Si         1.99280       -1.28760        0.08640
Si         3.18670        0.59240        0.64300
C          4.94320        0.54740       -0.03920
F          5.48350        1.81810       -0.01480
F          4.96710        0.07420       -1.32680
F          5.72250       -0.27730        0.74880
C          3.51670        0.79700        2.48320
F          4.60200        1.63200        2.66820
F          3.80500       -0.43320        3.04160
F          2.43420        1.36040        3.11620
Si         2.03120        2.38620       -0.12690
C          1.88250        3.74720        1.16870
F          0.99730        3.40910        2.15780
F          1.44080        4.90780        0.56260
F          3.11830        3.98190        1.73950
C          3.04480        3.27860       -1.44140
F          3.99110        4.08210       -0.83500
F          2.21910        4.07780       -2.20670
F          3.70490        2.38130       -2.24540
C          2.88480       -2.83700        0.65460
S          4.52160       -2.99700       -0.11980
C          4.92780       -4.55970        0.71940
H         -4.05000        4.85280       -2.46120
H         -2.31880        5.18980       -2.84650
H         -2.91470        5.31280       -1.13520
H         -0.95220        3.93480       -0.35460
H         -0.35980        3.81420       -2.05860
H          3.00040       -2.78980        1.75670
H          2.26530       -3.71730        0.38990
H          5.93730       -4.88990        0.39970
H          4.19030       -5.34270        0.44570
H          4.92960       -4.41280        1.81950
