144
mol3-E-1
C         -1.35900        5.14780        1.58860
S         -1.74500        3.42680        2.03730
C         -0.44910        2.58330        0.98790
C          0.08470        1.09800        0.63410
C         -1.07790        0.09900       -0.32030
C         -2.65510        0.27490        0.24770
C         -3.81980       -0.50770       -0.45430
C         -3.45650        1.60720        0.50230
C         -1.41450        0.56200       -1.94230
C         -0.77240        0.24140       -3.35060
C         -2.33970        1.80760       -2.26180
C         -0.53080       -1.60340       -0.15570
C         -0.76320       -2.57420       -1.58590
C         -0.38440       -4.13120       -1.79800
C         -2.15720       -2.66980       -2.33250
C         -1.42420       -2.60330        0.86090
C         -2.96660       -2.67880        1.17680
C         -1.09520       -4.14570        0.98120
C          1.65870        1.25400       -0.23330
C          2.62030        2.28190        0.66390
C          4.14420        2.25870        1.04480
C          2.36510        3.84130        0.56420
C          1.67400        2.15200       -1.67420
C          2.88310        3.05810       -2.18820
C          0.49950        3.01060       -2.07270
C          2.21760       -0.40970       -0.49580
C          3.88170       -0.59520       -0.30450
C          4.81980        0.37890       -1.03940
C          4.76320       -1.91050       -0.49170
C          2.15470       -0.89340       -2.10880
C          3.00330       -0.21350       -3.25720
C          2.29800       -2.37440       -2.62490
C          1.16460       -1.44160        0.54620
C          1.14700       -1.00490        2.29990
C          0.61740       -2.35920        3.28530
C          1.59350       -3.09290        4.26930
C         -0.75450       -2.76330        4.01180
C          2.66500       -0.73560        2.95430
C          3.93430       -1.58380        2.64900
C          2.85510       -0.51610        4.51440
C          0.27810        0.52640        2.37450
C          0.91870        1.71640        3.50680
C          2.34160        2.36390        3.79730
C          0.00460        2.89190        4.02560
C         -1.14840        0.25180        3.27710
C         -0.97330       -0.06180        4.81220
C         -2.54030        1.02770        3.35040
C          1.83890       -2.86940        0.40020
S          2.48060       -4.22040        1.50800
C          3.02140       -5.37270        0.20090
H         -1.95380        5.82610        2.23350
H         -0.28280        5.36120        1.75060
H         -1.64130        5.33230        0.53250
H         -0.64480        3.06350        0.05430
H          0.40850        3.11680        1.26920
H         -2.55450       -0.12950        1.20460
H         -4.66760       -0.68810        0.24370
H         -4.27310        0.01060       -1.32090
H         -3.52690       -1.43980       -0.85320
H         -4.23940        1.41840        1.26890
H         -4.08020        1.95750       -0.34590
H         -2.95490        2.48400        0.84080
H         -2.16070       -0.14540       -2.09500
H          0.05530        0.87770       -3.66240
H         -0.56030       -0.78710       -3.63990
H         -1.52040        0.44920       -4.15150
H         -1.97090        2.39990       -3.12710
H         -3.36970        1.52970       -2.57120
H         -2.40020        2.55340       -1.48240
H         -0.13030       -2.14270       -2.29780
H         -1.24650       -4.82280       -1.68570
H          0.41880       -4.69400       -1.31470
H         -0.10470       -4.27100       -2.86830
H         -2.65860       -1.83780       -2.82130
H         -2.05260       -3.25320       -3.27730
H         -2.88970       -3.25670       -1.74490
H         -1.10600       -2.16740        1.71710
H         -3.43690       -1.83730        1.69640
H         -3.56820       -3.11130        0.35690
H         -3.17450       -3.40940        1.99030
H         -1.33200       -4.52370        1.99140
H         -1.77220       -4.75160        0.34960
H         -0.09200       -4.52940        0.86220
H          2.21400        2.00340        1.55900
H          4.54160        1.38470        1.57100
H          4.33600        3.03100        1.82280
H          4.81950        2.61620        0.24850
H          3.20190        4.39000        0.08400
H          2.28100        4.31590        1.55630
H          1.47110        4.14470        0.03600
H          1.55680        1.43200       -2.42320
H          3.81170        3.10640       -1.62130
H          2.64680        4.14430       -2.21150
H          3.11610        2.85600       -3.25400
H          0.56070        4.09010       -1.83950
H         -0.28100        2.59140       -1.54290
H          0.30440        2.99470       -3.16820
H          4.00850       -0.31210        0.68900
H          5.70240        0.63880       -0.41340
H          4.28770        1.24310       -1.28720
H          5.26450        0.00410       -1.98410
H          5.77190       -1.71450       -0.06060
H          4.54780       -2.86680        0.00330
H          4.96610       -2.14550       -1.55150
H          1.15780       -0.61680       -2.32050
H          2.38180       -0.14250       -4.17780
H          3.39930        0.77520       -3.10740
H          3.90760       -0.79090       -3.55140
H          3.33600       -2.73390       -2.70280
H          1.88430       -2.44480       -3.65710
H          1.78980       -3.16590       -2.12770
H          0.55950       -3.10300        2.52500
H          1.28280       -4.15160        4.42580
H          2.60620       -3.24890        3.93610
H          1.57350       -2.64940        5.28540
H         -0.73150       -2.60920        5.11080
H         -1.74450       -2.44670        3.66270
H         -0.87290       -3.86810        3.98920
H          2.90930        0.18060        2.45530
H          3.81500       -2.14890        1.77170
H          4.30620       -2.29890        3.40580
H          4.82240       -0.91940        2.55140
H          3.36000       -1.35350        5.03650
H          1.96840       -0.41510        5.12940
H          3.57750        0.28670        4.74190
H          0.95960        1.13610        4.39260
H          3.25370        1.88970        3.44840
H          2.50640        2.47510        4.89610
H          2.41290        3.40300        3.43870
H         -1.06690        2.79340        3.96760
H          0.24480        3.85800        3.54250
H          0.18900        3.06850        5.11020
H         -1.49010       -0.63970        2.86000
H         -0.94740        0.85390        5.43990
H         -0.06840       -0.60460        5.06820
H         -1.84360       -0.63560        5.20300
H         -2.69360        1.97790        2.85870
H         -2.82560        1.35210        4.37710
H         -3.38950        0.34800        3.11870
H          2.59930       -2.81310       -0.30170
H          1.15760       -3.36640       -0.14770
H          2.14550       -5.91000       -0.21230
H          3.55910       -4.84260       -0.61140
H          3.70780       -6.12010        0.64840
