36
mol38-D-1
C          0.77220       -3.94880       -2.71840
S          0.03220       -2.45300       -1.99310
C         -1.32960       -2.29990       -3.19870
Si        -2.44550       -0.81800       -2.86100
Si        -4.49760       -1.58480       -2.36000
Si        -5.23500       -3.00090       -3.92190
Si        -4.42230       -2.74140       -0.45080
Si        -5.91060        0.14640       -2.17180
Si        -7.14140        0.36310       -4.02330
Si        -7.34700       -0.18740       -0.49310
Si        -2.64330        0.70530       -4.52300
Si        -0.65980        1.29850       -5.37370
Si        -3.84660       -0.14160       -6.20360
Si        -3.65540        2.54720       -3.71800
Si        -5.08870        3.39310       -5.20890
Si        -2.13680        4.13900       -3.31750
Si        -4.73820        2.02380       -1.82310
Si        -3.21910        1.62770       -0.21760
Si        -2.26030        3.51410        0.50230
Si        -4.22330        0.71230        1.55500
Si        -1.65230        0.24360       -1.04410
Si        -1.03080       -1.23100        0.51690
Si         0.18670        1.38050       -1.60410
C         -5.96170        3.34900       -1.32260
S         -5.16150        4.98260       -1.25770
C         -6.67320        5.86330       -0.75800
H          0.05110       -4.79100       -2.67640
H          1.06620       -3.75730       -3.76770
H          1.67730       -4.22140       -2.13840
H         -0.95060       -2.24870       -4.24000
H         -1.94680       -3.21710       -3.12060
H         -6.37520        3.08940       -0.32600
H         -6.78250        3.36600       -2.06920
H         -7.04120        5.46930        0.21210
H         -7.45790        5.74460       -1.53400
H         -6.44210        6.94200       -0.64310
