144
mol3-A-1
C         -0.48900       -5.52430        0.76930
S         -0.76930       -4.20450       -0.45810
C         -0.13020       -2.80610        0.57780
C          0.04180       -1.21250        0.36990
C          1.73380       -0.81910        0.89570
C          2.87090       -1.96690        0.22860
C          3.28310       -3.30160        0.98090
C          4.11900       -1.87300       -0.76450
C          2.03970       -1.09370        2.49550
C          1.73320       -2.42500        3.27770
C          3.45250       -0.79860        3.10530
C          1.93570        0.92050        0.59660
C          2.25860        2.02330        1.84910
C          2.97620        3.37460        1.51550
C          2.53800        1.94230        3.39390
C          3.36440        1.07460       -0.22530
C          4.02050        2.27660       -1.02140
C          4.64330        0.63760        0.56610
C         -1.19880       -0.38310        1.33400
C         -2.72250       -0.84460        0.85010
C         -3.17510       -2.27970        0.42090
C         -4.02500       -0.42530        1.63660
C         -1.16170       -0.91990        2.99070
C         -2.35790       -1.72230        3.61640
C         -0.60540       -0.30920        4.36720
C         -0.99560        1.33700        1.00150
C         -0.94730        2.10090        2.49430
C         -2.25520        1.99770        3.33670
C         -0.50980        3.57810        2.89400
C         -2.28960        2.25220        0.38260
C         -3.81750        1.99250        0.18480
C         -2.32710        3.82690        0.58650
C          0.40970        1.47090       -0.16860
C          0.10560        0.72210       -1.77650
C          1.39940        1.17300       -2.81890
C          1.18540        2.21630       -3.97620
C          2.69730        0.46500       -3.42430
C         -1.20510        1.33620       -2.69780
C         -1.49140        0.85990       -4.18700
C         -1.70520        2.85870       -2.81300
C         -0.18340       -0.98330       -1.42440
C          0.91550       -1.84850       -2.35310
C          0.86940       -1.68590       -3.91290
C          1.23910       -3.40380       -2.28420
C         -1.61890       -1.67140       -2.13850
C         -3.11610       -1.15480       -2.39680
C         -1.74600       -3.22630       -2.49580
C          0.51550        3.06360       -0.41780
S          1.39990        4.17920       -1.59180
C          0.76460        5.75460       -0.92560
H          0.59230       -5.60750        1.00180
H         -1.05910       -5.31480        1.69800
H         -0.83740       -6.48850        0.34650
H         -0.67190       -3.02170        1.45190
H          0.81930       -3.16610        0.81770
H          2.22760       -2.42190       -0.41870
H          3.61840       -4.07020        0.24580
H          4.16570       -3.18280        1.62980
H          2.52900       -3.90630        1.49050
H          4.36450       -1.04530       -1.41820
H          4.09290       -2.71530       -1.48910
H          5.07400       -2.04380       -0.21860
H          1.37070       -0.37400        2.88520
H          2.62740       -3.04720        3.50350
H          1.36570       -2.19520        4.29290
H          1.05280       -3.12230        2.83130
H          4.21400       -1.56300        2.89870
H          3.38370       -0.75820        4.21640
H          3.92620        0.12220        2.85110
H          1.30730        2.35990        1.93490
H          2.80960        3.76820        0.51990
H          2.61020        4.19910        2.16720
H          4.06500        3.32800        1.71140
H          2.10730        1.15000        3.98910
H          3.62240        2.02250        3.62640
H          2.12020        2.83830        3.90550
H          3.13250        0.39760       -1.00100
H          4.77840        1.85130       -1.71580
H          4.63340        2.96140       -0.40190
H          3.46970        2.89810       -1.70270
H          4.92690        1.36380        1.34910
H          5.53720        0.55210       -0.09220
H          4.61310       -0.33980        1.01060
H         -2.71010       -0.31800       -0.07330
H         -4.11990       -2.21040       -0.15090
H         -2.51040       -2.83940       -0.19090
H         -3.51270       -2.96910        1.20650
H         -4.87900       -0.32100        0.93470
H         -4.00100        0.47480        2.21750
H         -4.44260       -1.19790        2.30870
H         -0.47720       -1.70470        2.87220
H         -2.83690       -2.46570        3.00850
H         -2.01470       -2.37400        4.45220
H         -3.12430       -1.06170        4.07030
H          0.29530        0.28530        4.44860
H         -1.36220        0.22160        4.97410
H         -0.34210       -1.13430        5.06210
H         -0.19450        1.54360        2.99050
H         -2.60630        1.00160        3.49670
H         -2.10110        2.37280        4.37390
H         -3.09050        2.58750        2.92780
H         -1.35950        4.29010        2.96490
H         -0.13040        3.54950        3.93980
H          0.28170        4.12010        2.37400
H         -2.04050        2.13170       -0.59490
H         -4.10660        1.12770       -0.41240
H         -4.25670        2.75950       -0.49310
H         -4.41580        2.15420        1.10010
H         -1.39670        4.36780        0.76940
H         -2.70220        4.32430       -0.33490
H         -3.03250        4.13010        1.38690
H          1.87280        1.77330       -2.11530
H          1.00780        1.71620       -4.94970
H          0.45830        3.00420       -3.84690
H          2.11220        2.81350       -4.13850
H          3.19460       -0.38230       -2.97800
H          2.59020        0.19480       -4.49600
H          3.52760        1.19940       -3.47880
H         -2.00920        0.91970       -2.15820
H         -1.24280       -0.11580       -4.58880
H         -2.58760        0.93170       -4.36130
H         -1.09430        1.54660       -4.95480
H         -1.03590        3.68120       -2.57020
H         -2.69350        3.02110       -2.33910
H         -1.96600        3.17300       -3.84740
H          1.81210       -1.37860       -2.04200
H          0.65810       -0.68590       -4.25980
H          1.84510       -1.98140       -4.35900
H          0.12480       -2.33810       -4.41010
H          2.30340       -3.54760       -2.56320
H          1.13440       -3.96180       -1.34890
H          0.71920       -4.01240       -3.05380
H         -1.33780       -1.38630       -3.10710
H         -3.88680       -1.92140       -2.21000
H         -3.31390       -0.98260       -3.47870
H         -3.54890       -0.29340       -1.89470
H         -1.12970       -3.97660       -2.00670
H         -2.74300       -3.64920       -2.25890
H         -1.65260       -3.41050       -3.58930
H         -0.42550        3.34030       -0.73660
H          0.60200        3.58930        0.49590
H         -0.33970        5.79510       -1.02410
H          1.05360        5.86690        0.14000
H          1.20410        6.59250       -1.50410
