36
mol38-C-2
C          0.72930       -9.85210        0.40440
S          0.53450       -8.28330       -0.49650
C         -0.67070       -7.59130        0.67900
Si        -1.20940       -5.87780        0.15290
Si         0.46040       -4.38560        0.31010
Si         2.35770       -5.26770       -0.47310
Si         0.82970       -3.85390        2.44970
Si        -0.10980       -2.54580       -0.84660
Si         0.57850       -0.71350        0.23400
Si         0.90530       -2.52420       -2.83550
Si        -2.95090       -5.13540        1.35810
Si        -4.75910       -6.36430        0.90120
Si        -2.58470       -5.33600        3.55390
Si        -3.30780       -2.97890        0.83740
Si        -5.50260       -2.56860        0.77920
Si        -2.46730       -1.64250        2.41750
Si        -2.34030       -2.49150       -1.13460
Si        -2.88100       -4.11930       -2.60500
Si        -2.27760       -3.61870       -4.70110
Si        -5.09140       -4.44290       -2.61690
Si        -1.84010       -6.01460       -1.99370
Si        -0.04030       -6.37650       -3.26730
Si        -3.17630       -7.78130       -2.28920
C         -2.82340       -0.73170       -1.60860
S         -3.61450       -0.63160       -3.25040
C         -3.87280        1.16970       -3.23610
H          1.11240       -9.65920        1.42810
H         -0.24390      -10.38280        0.46090
H          1.45620      -10.49190       -0.13640
H         -0.21910       -7.52460        1.69060
H         -1.56840       -8.24270        0.71850
H         -1.89900       -0.12170       -1.64750
H         -3.46780       -0.29850       -0.81620
H         -2.89630        1.69510       -3.19120
H         -4.39810        1.46660       -4.16650
H         -4.49510        1.45830       -2.36780
