144
mol31-A-0
C         -5.12940       -2.95940       -2.37990
S         -4.32010       -1.97830       -1.07800
C         -2.68820       -1.96190       -1.88150
Si        -1.29150       -1.03180       -0.96850
Si         0.67530       -2.32800       -1.37360
C          0.84260       -2.90670       -3.23220
C         -0.46230       -3.19720       -3.97080
C          1.80320       -4.08550       -3.46610
C          0.51810       -3.92510       -0.30800
C         -0.26990       -5.07280       -0.95200
C          1.81910       -4.47960        0.27790
Si         2.52030       -0.96620       -0.74170
C          4.10030       -1.88720       -0.03380
C          5.12120       -1.00520        0.71600
C          4.86620       -2.67530       -1.10110
C          3.17100       -0.02960       -2.29840
C          4.33380        0.93090       -2.02290
C          3.53600       -0.89640       -3.52020
Si        -1.83710       -1.07560        1.36990
C         -3.38360        0.04890        1.81840
C         -4.54660       -0.62490        2.55260
C         -3.95780        0.82400        0.64330
C         -2.16650       -2.87310        2.09650
C         -2.92650       -3.81410        1.16630
C         -2.78290       -2.96730        3.50190
Si         0.15980       -0.32700        2.37470
C          0.97120       -1.88810        3.17300
C          0.34100       -2.34460        4.50390
C          2.48150       -1.80980        3.32410
C         -0.05220        0.99340        3.78330
C          1.08200        0.97500        4.81990
C         -1.40150        0.95280        4.52460
Si         1.56530        0.62910        0.72220
Si         0.50660        2.30240       -0.56850
C          1.83700        3.39270       -1.47250
C          2.80210        4.12960       -0.53700
C          1.27680        4.40090       -2.48290
C         -0.37000        3.53220        0.64470
C         -1.59400        2.94330        1.31310
C         -0.72640        4.90680        0.06820
Si        -0.95960        1.12570       -2.01650
C         -0.24610        0.72670       -3.78400
C         -1.28950        0.26810       -4.81480
C          0.61180        1.79540       -4.47010
C         -2.56290        2.19630       -2.31120
C         -2.41420        3.37290       -3.28260
C         -3.78260        1.37770       -2.74860
C          3.00440        1.38270        1.70810
S          2.61800        2.95710        2.54060
C          4.27550        3.15820        3.26440
H         -6.19590       -3.10440       -2.11220
H         -5.07210       -2.42630       -3.35160
H         -4.64300       -3.95340       -2.46610
H         -2.84580       -1.52850       -2.87110
H         -2.38080       -3.00600       -2.01950
H          1.26410       -2.05490       -3.77200
H         -1.10290       -2.31110       -3.97050
H         -0.24810       -3.42490       -5.03760
H         -0.99850       -4.06620       -3.54910
H          2.36860       -3.92890       -4.41000
H          1.26730       -5.04970       -3.57730
H          2.52640       -4.19600       -2.65260
H         -0.07590       -3.59030        0.53410
H         -0.59360       -5.78680       -0.16410
H         -1.18340       -4.72300       -1.45070
H          0.35110       -5.64010       -1.66820
H          2.62200       -4.53600       -0.47480
H          2.13770       -3.87420        1.13900
H          1.66630       -5.50260        0.68440
H          3.76690       -2.63070        0.69790
H          6.06520       -1.56510        0.89130
H          4.77940       -0.72510        1.72070
H          5.38560       -0.08990        0.16880
H          5.39260       -1.99760       -1.80210
H          4.20020       -3.34140       -1.66100
H          5.62940       -3.32570       -0.62180
H          2.30370        0.57490       -2.57630
H          4.17470        1.50080       -1.09790
H          5.30030        0.39210       -1.96000
H          4.42390        1.65620       -2.85990
H          4.58350       -0.74600       -3.85970
H          2.89270       -0.62900       -4.38530
H          3.44040       -1.96960       -3.30770
H         -3.01630        0.81400        2.51000
H         -5.42750        0.05270        2.59510
H         -4.28620       -0.81410        3.61050
H         -4.86320       -1.54780        2.02840
H         -4.79370        0.29810        0.14780
H         -3.15670        1.00380       -0.06770
H         -4.36870        1.79710        0.98730
H         -1.18690       -3.33290        2.23440
H         -2.83860       -4.86010        1.53150
H         -4.00380       -3.56020        1.13230
H         -2.49950       -3.78440        0.15500
H         -2.50700       -2.10880        4.12990
H         -2.42130       -3.88650        4.01190
H         -3.88710       -3.06040        3.47290
H          0.81440       -2.68530        2.43610
H         -0.46620       -1.67370        4.83620
H         -0.06280       -3.37290        4.40370
H          1.08160       -2.37500        5.33230
H          2.79450       -1.10530        4.11620
H          2.89260       -2.81210        3.57170
H          2.89890       -1.50940        2.36590
H          0.01740        1.97580        3.28090
H          2.07380        0.98120        4.34790
H          1.02170        1.88510        5.45470
H          1.01190        0.09420        5.48700
H         -1.28490        1.04050        5.62660
H         -1.94560        0.01500        4.33820
H         -2.03240        1.81240        4.21870
H          2.45480        2.70370       -2.04970
H          3.49600        3.42600       -0.05510
H          2.26440        4.70990        0.23580
H          3.44040        4.83410       -1.11310
H          0.40530        3.99440       -2.99570
H          0.99910        5.36700       -2.02380
H          2.04610        4.62210       -3.25390
H          0.35200        3.72830        1.45230
H         -1.45690        1.86240        1.40500
H         -2.51220        3.16980        0.74400
H         -1.72670        3.38150        2.32500
H         -1.40750        5.45430        0.75560
H          0.17160        5.54380       -0.02100
H         -1.23490        4.81030       -0.90490
H          0.41460       -0.12610       -3.60060
H         -0.79480       -0.34560       -5.59830
H         -1.77500        1.12200       -5.32630
H         -2.08180       -0.33760       -4.37400
H          1.04080        1.38100       -5.40810
H          1.47000        2.09620       -3.86530
H          0.01730        2.68440       -4.75060
H         -2.81140        2.66950       -1.34990
H         -2.15080        3.04400       -4.30100
H         -3.37790        3.92230       -3.35620
H         -1.68470        4.10700       -2.92420
H         -4.70890        1.96970       -2.58760
H         -3.73920        1.11200       -3.82250
H         -3.87890        0.46070       -2.15920
H          3.30110        0.67600        2.49400
H          3.87790        1.52580        1.05560
H          4.50650        2.30320        3.93320
H          4.29890        4.09480        3.85800
H          5.03720        3.22360        2.45990
