180
mol39-B-0
C          1.40630       -5.36100        2.87550
S          1.53010       -3.55820        2.66400
C          0.71140       -3.54380        1.04820
Si         0.54940       -1.83490        0.29750
Si        -1.60810       -1.13980        1.20360
Si        -3.66310       -2.23470        1.01600
C         -3.72280       -4.06370        1.44790
C         -4.97520       -1.48020        2.11160
C         -4.33500       -2.11140       -0.69490
Si        -1.61230       -1.55870        3.50440
C         -2.91680       -0.67290        4.51350
C         -1.83250       -3.35690        3.98760
C         -0.01100       -1.14770        4.29080
Si        -1.96580        1.02090        0.33310
Si        -4.00430        1.63560       -0.65230
C         -4.16630        0.93730       -2.34260
C         -5.65110        1.22820        0.15150
C         -4.14740        3.49150       -0.92700
Si        -2.22480        2.57090        2.05660
C         -1.73710        4.29790        1.55790
C         -1.32900        2.12220        3.61000
C         -3.95760        2.80910        2.73270
Si         0.60630       -2.37340       -2.09010
Si        -0.53240       -4.44290       -2.23620
C         -1.92100       -4.51160       -1.05930
C          0.37950       -6.02210       -1.74660
C         -1.24710       -4.91790       -3.89910
Si         2.43570       -3.37850       -3.25680
C          3.82010       -2.46270       -4.13520
C          1.87700       -4.40530       -4.73450
C          3.34200       -4.63600       -2.20470
Si        -0.29850       -0.40390       -3.14310
Si         0.66440        0.63390       -5.03120
C          1.90790       -0.43690       -5.91420
C          1.38870        2.30380       -4.68540
C         -0.43420        1.20900       -6.44450
Si        -2.09520       -1.13540       -4.50090
C         -1.46940       -2.11560       -5.98370
C         -3.30730       -2.28390       -3.70340
C         -3.21360        0.16820       -5.27790
Si        -0.24430        1.26020       -1.33950
Si         1.97830        1.56060       -0.39810
Si         2.20200        3.59670        0.72150
C          1.51430        5.14930       -0.09280
C          3.94750        4.15160        1.12340
C          1.42560        3.45810        2.36530
Si         3.73580        2.14270       -1.82550
C          3.90230        1.04380       -3.29530
C          3.56840        3.87260       -2.55140
C          5.43110        2.14440       -1.03880
Si         2.39520       -0.37120        0.93150
Si         3.13520        0.17580        3.13280
C          3.67100       -1.35190        4.08590
C          2.17750        1.05990        4.48910
C          4.65960        1.25530        3.04660
Si         4.38090       -1.53270        0.48910
C          6.01820       -1.09320        1.31290
C          4.80090       -1.37830       -1.27380
C          4.29920       -3.36360        0.84090
C         -0.58630        2.97800       -2.00550
S         -1.74420        3.01070       -3.39810
C         -1.68760        4.81920       -3.59990
H          1.98300       -5.87730        2.08000
H          1.82880       -5.63800        3.86270
H          0.34410       -5.68020        2.83580
H          1.27850       -4.16410        0.34530
H         -0.29750       -3.97870        1.15600
H         -4.18910       -4.63620        0.62180
H         -4.35170       -4.22430        2.34570
H         -2.70970       -4.45820        1.63180
H         -5.97790       -1.66230        1.67530
H         -4.80380       -0.39550        2.20800
H         -4.95760       -1.95970        3.10690
H         -5.38910       -1.78470       -0.70450
H         -4.31750       -3.09750       -1.18860
H         -3.68240       -1.39410       -1.21010
H         -2.46050       -0.21450        5.41330
H         -3.68290       -1.38980        4.86710
H         -3.39260        0.10900        3.90730
H         -1.25660       -4.02120        3.32020
H         -1.46920       -3.50370        5.02500
H         -2.90390       -3.62410        3.98270
H          0.39840       -2.01340        4.84700
H          0.64900       -0.88300        3.45890
H         -0.15020       -0.31270        5.00240
H         -4.97700        0.18410       -2.37200
H         -3.19170        0.49040       -2.56840
H         -4.40880        1.73480       -3.07170
H         -6.44820        1.75440       -0.41260
H         -5.71740        1.55330        1.19830
H         -5.86970        0.15570        0.09220
H         -3.16740        3.94940       -1.11520
H         -4.80030        3.68800       -1.80130
H         -4.61300        3.98890       -0.05910
H         -2.54000        4.77980        0.97120
H         -1.55670        4.90810        2.46600
H         -0.82370        4.24990        0.95580
H         -0.75150        1.22460        3.36610
H         -2.03800        1.91020        4.43040
H         -0.69030        2.95650        3.95660
H         -4.41950        1.84060        2.98670
H         -3.89570        3.41390        3.66050
H         -4.59560        3.36650        2.02870
H         -1.69700       -5.23520       -0.25200
H         -1.98160       -3.49550       -0.66570
H         -2.85530       -4.82140       -1.56680
H          1.20190       -6.26660       -2.43930
H         -0.34200       -6.86320       -1.79960
H          0.75120       -5.98650       -0.70760
H         -0.98900       -5.97100       -4.13130
H         -2.34920       -4.84830       -3.90220
H         -0.81780       -4.28080       -4.67620
H          3.80900       -2.66850       -5.22420
H          3.71740       -1.39640       -4.01610
H          4.80880       -2.79120       -3.76270
H          1.28400       -3.78980       -5.43300
H          2.77020       -4.77310       -5.27990
H          1.31860       -5.30450       -4.43630
H          3.54850       -5.54370       -2.80760
H          2.74300       -4.92120       -1.32890
H          4.31250       -4.23910       -1.86590
H          1.77150       -1.48150       -5.59500
H          1.73970       -0.38320       -7.00890
H          2.93690       -0.08620       -5.71230
H          2.26360        2.48720       -5.33900
H          0.65420        3.10800       -4.87930
H          1.64820        2.32470       -3.63150
H          0.19210        1.78640       -7.15570
H         -0.85350        0.37240       -7.01720
H         -1.22460        1.89070       -6.08350
H         -1.67620       -1.59850       -6.93670
H         -2.00740       -3.07890       -6.06640
H         -0.38530       -2.29230       -5.89340
H         -4.20480       -1.73270       -3.37700
H         -2.80570       -2.76360       -2.85850
H         -3.65670       -3.04340       -4.42950
H         -2.98800        1.17050       -4.89290
H         -3.10920        0.17590       -6.38000
H         -4.27560       -0.05950       -5.05670
H          2.25420        5.58570       -0.78840
H          1.32000        5.90530        0.69520
H          0.57990        4.98000       -0.64010
H          3.93480        4.76480        2.04760
H          4.61210        3.29500        1.27830
H          4.35380        4.78390        0.31310
H          0.81010        2.55330        2.29070
H          0.83090        4.35980        2.60360
H          2.21000        3.35520        3.13380
H          2.98760        0.43020       -3.30590
H          3.99920        1.63980       -4.22000
H          4.81890        0.43350       -3.24880
H          4.04280        3.90610       -3.55270
H          4.09100        4.61130       -1.91770
H          2.50930        4.16800       -2.65210
H          5.74240        3.17150       -0.77010
H          5.40590        1.51340       -0.14220
H          6.18340        1.74820       -1.75010
H          4.22410       -2.06180        3.46020
H          4.32780       -1.04200        4.92420
H          2.79130       -1.86120        4.51940
H          1.21210        1.41670        4.14220
H          2.75120        1.92240        4.88160
H          2.02640        0.38140        5.35180
H          5.04980        1.26500        2.02430
H          5.43780        0.87520        3.73870
H          4.41830        2.29410        3.34210
H          5.94830       -1.08510        2.41360
H          6.75920       -1.87140        1.03760
H          6.42080       -0.13250        0.94750
H          5.34060       -2.28090       -1.60900
H          3.84600       -1.22630       -1.79630
H          5.48720       -0.52750       -1.40070
H          5.17210       -3.86510        0.37610
H          4.32430       -3.58450        1.92130
H          3.38590       -3.77180        0.41030
H         -1.01460        3.56250       -1.18050
H          0.35840        3.45580       -2.30300
H         -0.65740        5.14410       -3.85380
H         -2.36930        5.11100       -4.42450
H         -2.01610        5.32200       -2.66700
