180
mol33-E-0
C         -3.18480        5.17740       -0.66000
S         -3.15700        3.35760       -0.63000
C         -1.36310        3.23370       -0.41850
Si        -0.57830        1.51050       -0.30150
Si         1.82220        2.42680        0.06740
C          2.08190        4.01280       -1.21930
C          3.55820        4.36920       -1.55930
C          1.37840        3.72120       -2.54090
C          1.46870        5.35810       -0.73080
C          2.45150        3.41660        1.75100
C          1.50780        4.56850        2.24380
C          2.62480        2.39630        2.89340
C          3.83950        4.10140        1.54960
Si         3.18860        0.31220       -0.13040
C          4.53250       -0.20880        1.32230
C          5.48930       -1.35270        0.90210
C          5.48620        0.91080        1.82580
C          3.78540       -0.73870        2.54150
C          4.53890        0.56700       -1.65380
C          5.73390        1.47530       -1.22710
C          3.85990        1.27570       -2.84190
C          5.20030       -0.74890       -2.18010
Si        -1.04020        0.39880       -2.58370
C         -3.04900        0.51290       -2.98210
C         -3.65270       -0.51050       -3.98600
C         -3.83770        0.33870       -1.68130
C         -3.47970        1.88350       -3.57880
C         -0.35880        1.19450       -4.33270
C         -0.69220        2.70830       -4.53210
C         -0.95450        0.46440       -5.56790
C          1.16600        1.01660       -4.43320
Si         0.04280       -1.83860       -2.26910
C         -1.39720       -3.26780       -2.46110
C         -2.64880       -2.86150       -1.66460
C         -1.86260       -3.42280       -3.93510
C         -0.96050       -4.69580       -2.00020
C          1.33820       -2.55030       -3.69220
C          1.57070       -4.08630       -3.60360
C          0.96400       -2.34050       -5.18730
C          2.70810       -1.89310       -3.50660
Si         1.33130       -1.47710       -0.05820
Si        -0.07250       -1.55490        2.12860
C         -0.73990       -3.49300        2.34470
C         -1.07650       -4.07670        0.97600
C         -2.00280       -3.67770        3.23690
C          0.30410       -4.47810        2.95080
C          0.67900       -1.38830        4.03850
C          1.02710        0.08510        4.33130
C         -0.36270       -1.81160        5.12360
C          1.94420       -2.26550        4.33480
Si        -1.66860        0.36610        1.74060
C         -1.90130        1.82730        3.15360
C         -2.04940        1.34160        4.62270
C         -3.13910        2.73310        2.92830
C         -0.70560        2.77350        3.10730
C         -3.58190       -0.37090        1.82140
C         -4.03250       -0.66090        3.28740
C         -4.68220        0.57590        1.23920
C         -3.65720       -1.71580        1.07370
C          2.20890       -3.12390        0.28540
S          3.44590       -3.71580       -0.89730
C          3.82890       -5.23690        0.02630
H         -2.78600        5.58100        0.29400
H         -2.57950        5.55450       -1.51060
H         -4.23200        5.52010       -0.78490
H         -1.10160        3.78610        0.49630
H         -0.92520        3.73540       -1.28850
H          4.02690        5.08980       -0.87080
H          3.65800        4.88790       -2.53760
H          4.17760        3.48770       -1.59130
H          0.60000        4.46910       -2.80130
H          2.06190        3.75330       -3.41070
H          0.90310        2.73820       -2.47180
H          2.05970        5.84520        0.05450
H          1.48020        6.11300       -1.54920
H          0.41930        5.26830       -0.41250
H          0.58120        4.60350        1.66330
H          1.93640        5.58860        2.18780
H          1.26080        4.51870        3.32170
H          3.62820        2.36460        3.35790
H          2.40690        1.40560        2.49870
H          1.98290        2.57840        3.76700
H          4.43210        4.16250        2.48750
H          3.78330        5.15810        1.23700
H          4.43900        3.59600        0.79100
H          4.94060       -2.23480        0.56820
H          6.11160       -1.68260        1.76470
H          6.22940       -1.05240        0.15140
H          5.82750        0.74230        2.87080
H          6.44100        0.98410        1.28090
H          5.00780        1.87170        1.79010
H          2.71650       -0.80640        2.32380
H          3.91990       -0.10190        3.43490
H          4.14390       -1.73940        2.86230
H          6.58720        0.91640       -0.80920
H          5.44470        2.21950       -0.48190
H          6.20000        2.00860       -2.08280
H          2.90470        1.67230       -2.50730
H          3.69320        0.62990       -3.71030
H          4.43690        2.11080       -3.28850
H          6.29360       -0.82570       -2.01170
H          5.14530       -0.87280       -3.27950
H          4.75920       -1.62190       -1.69810
H         -3.23640       -0.50490       -4.99530
H         -3.62600       -1.52560       -3.62370
H         -4.73800       -0.30610       -4.12830
H         -4.56200        1.15450       -1.48700
H         -3.14580        0.28460       -0.83290
H         -4.47210       -0.56950       -1.69090
H         -2.97350        2.73200       -3.11400
H         -4.57200        2.06150       -3.46500
H         -3.34360        1.93340       -4.67020
H         -0.96910        3.18480       -3.58330
H          0.14260        3.28070       -4.98770
H         -1.52000        2.91050       -5.23700
H         -1.08090       -0.60810       -5.37300
H         -0.32740        0.58260       -6.47770
H         -1.92280        0.87240       -5.89880
H          1.49160        0.34160       -3.64170
H          1.54390        0.67240       -5.41390
H          1.73020        1.94450       -4.37390
H         -3.61400       -2.99960       -2.18580
H         -2.85440       -3.49170       -0.80220
H         -2.53550       -1.82670       -1.34060
H         -1.86250       -2.45640       -4.45500
H         -1.25350       -4.13030       -4.51990
H         -2.87900       -3.86460       -4.01780
H         -0.73280       -5.39800       -2.82380
H         -1.75750       -5.23820       -1.45020
H         -0.06300       -4.65450       -1.37010
H          2.50350       -4.39520       -4.12540
H          0.79910       -4.66470       -4.13470
H          1.65080       -4.45070       -2.57770
H          1.73880       -2.80260       -5.84020
H          0.02340       -2.78450       -5.51990
H          0.96230       -1.30380       -5.48180
H          3.54060       -2.61810       -3.41120
H          2.69700       -1.26260       -2.60990
H          3.00340       -1.27820       -4.37990
H         -0.49080       -4.98690        0.72870
H         -0.87710       -3.31720        0.21430
H         -2.12360       -4.42500        0.89870
H         -1.79190       -3.84590        4.30460
H         -2.66680       -2.83240        3.15730
H         -2.58420       -4.58860        2.97640
H         -0.05160       -5.52940        2.85990
H          0.43800       -4.36280        4.03270
H          1.28240       -4.44080        2.44940
H          0.64670        0.69050        3.51510
H          0.61670        0.49770        5.27430
H          2.09850        0.28090        4.45430
H         -0.22500       -1.28330        6.09090
H         -1.39040       -1.65320        4.79300
H         -0.29330       -2.86800        5.43090
H          1.79930       -3.06240        5.09090
H          2.30250       -2.77120        3.43200
H          2.78180       -1.70380        4.79260
H         -3.08940        1.17840        4.94990
H         -1.68500        2.08690        5.36240
H         -1.50660        0.42750        4.78140
H         -3.13850        3.58270        3.64820
H         -4.09490        2.23340        3.12180
H         -3.13710        3.17880        1.93150
H         -0.02350        2.46870        2.30960
H         -0.13690        2.79820        4.05590
H         -1.00020        3.82950        2.93240
H         -4.80520       -1.45620        3.35440
H         -4.53340        0.19060        3.77580
H         -3.19660       -0.94640        3.92850
H         -5.34400        0.09330        0.49340
H         -5.42340        0.94320        1.97760
H         -4.23230        1.46410        0.79470
H         -4.19620       -1.66620        0.12200
H         -4.20410       -2.52260        1.60280
H         -2.64450       -2.06550        0.89060
H          1.43990       -3.90210        0.31610
H          2.69860       -3.04690        1.26880
H          4.60610       -5.80640       -0.52290
H          2.91970       -5.86700        0.11840
H          4.21500       -4.98360        1.03560
