180
mol32-D-1
C         -5.78790       -3.08230        0.26110
S         -4.64730       -1.72460        0.66790
C         -3.36260       -2.25120       -0.50750
Si        -1.85620       -1.12160       -0.49750
Si        -2.64960        0.90470       -1.32060
C         -3.68390        0.80060       -2.92720
C         -3.10800        0.06120       -4.15680
C         -3.93480       -1.18840       -4.49890
C         -3.07930        0.95430       -5.40990
C         -3.99820        1.44680       -0.09690
C         -4.75780        2.76470       -0.40860
C         -5.02290        3.55850        0.88180
C         -6.10480        2.51400       -1.10860
Si        -0.97450        2.47900       -1.26180
C         -0.75970        3.26070       -2.98680
C         -1.42660        4.63450       -3.27180
C         -0.57940        5.43890       -4.26880
C         -2.85180        4.50150       -3.81580
C         -1.44330        3.82430        0.00530
C         -0.31630        4.72900        0.55750
C         -0.84160        5.55250        1.74110
C          0.31600        5.66370       -0.47770
Si        -0.11060       -2.03850       -1.71860
C         -0.68940       -2.90180       -3.30650
C         -1.16670       -4.37240       -3.18400
C         -0.28310       -5.31130       -4.02350
C         -2.62350       -4.54280       -3.63820
C          0.76110       -3.27080       -0.55820
C          1.85610       -4.21500       -1.13100
C          3.20030       -4.02310       -0.40110
C          1.47000       -5.69820       -0.97090
Si         1.31280       -0.31540       -2.24520
C          3.11740       -0.92040       -2.16690
C          4.17340       -0.17050       -3.02460
C          4.75870       -1.08840       -4.11380
C          5.34070        0.35630       -2.17630
C          0.93440        0.44090       -3.95780
C          1.30350       -0.38820       -5.22290
C          2.29030        0.37080       -6.13210
C          0.06840       -0.71210       -6.07940
Si         0.92080        1.30270       -0.64930
Si         0.74780        0.46130        1.50720
C          0.60680        2.00810        2.62710
C          0.60290        1.84740        4.17230
C          1.84790        2.49380        4.81030
C         -0.62950        2.51310        4.81530
C          2.29410       -0.59780        1.82960
C          3.52630        0.11520        2.43750
C          3.73130       -0.29730        3.90480
C          4.80440       -0.22490        1.65890
Si        -1.09120       -0.89420        1.68060
C         -2.29440       -0.01900        2.85540
C         -3.77550       -0.46410        2.85370
C         -4.61600        0.53350        3.66190
C         -4.00810       -1.88010        3.38920
C         -0.65410       -2.61130        2.43040
C         -0.71800       -2.79100        3.97040
C          0.60630       -2.43060        4.64610
C         -1.08390       -4.24060        4.32350
C          2.43840        2.41160       -0.55720
S          2.86100        3.15230       -2.16460
C          4.30480        4.06420       -1.53610
H         -6.68990       -3.00020        0.90130
H         -6.09530       -3.01420       -0.80330
H         -5.30110       -4.06160        0.45020
H         -3.79210       -2.29010       -1.52200
H         -3.03710       -3.27020       -0.25670
H         -4.63550        0.31450       -2.62670
H         -3.94430        1.83730       -3.20180
H         -2.08330       -0.24500       -3.92110
H         -4.95850       -0.90370       -4.82480
H         -4.02710       -1.85060       -3.62580
H         -3.44660       -1.76350       -5.31450
H         -4.07280        1.42130       -5.58370
H         -2.31940        1.74670       -5.32210
H         -2.81670        0.35850       -6.30970
H         -3.48350        1.54870        0.86700
H         -4.72600        0.61460       -0.01490
H         -4.14200        3.40090       -1.06520
H         -5.68080        2.98040        1.56570
H         -4.07650        3.78780        1.41180
H         -5.51620        4.52530        0.64450
H         -5.97210        2.05550       -2.10370
H         -6.75070        1.85190       -0.49280
H         -6.63770        3.47600       -1.26740
H          0.32940        3.35240       -3.13310
H         -1.11010        2.53990       -3.73250
H         -1.49410        5.23320       -2.35360
H         -1.04770        6.42640       -4.46880
H          0.43400        5.62360       -3.85240
H         -0.47780        4.88700       -5.22820
H         -2.86620        3.93460       -4.76840
H         -3.28500        5.50730       -4.00260
H         -3.49780        4.00350       -3.07720
H         -2.25110        4.45950       -0.40490
H         -1.88160        3.26900        0.85510
H          0.48590        4.09450        0.94170
H         -0.02110        6.15510        2.18650
H         -1.65310        6.23630        1.41120
H         -1.24120        4.88360        2.53220
H          0.69990        5.08910       -1.34190
H         -0.40960        6.43250       -0.81570
H          1.18350        6.19040       -0.02560
H          0.15760       -2.83540       -4.01720
H         -1.50630       -2.29320       -3.71030
H         -1.12720       -4.68900       -2.12780
H         -0.56800       -6.36980       -3.84340
H          0.78660       -5.19350       -3.76250
H         -0.39780       -5.08900       -5.10650
H         -3.29930       -3.94750       -2.99930
H         -2.74770       -4.22070       -4.69440
H         -2.93310       -5.60620       -3.54940
H         -0.03030       -3.86380       -0.05930
H          1.21390       -2.62230        0.20070
H          2.00740       -4.00090       -2.20820
H          3.52940       -2.97210       -0.40700
H          3.11600       -4.33410        0.66290
H          3.99210       -4.63010       -0.89010
H          1.38740       -5.96680        0.10470
H          2.24120       -6.34580       -1.44030
H          0.50540       -5.93630       -1.44540
H          3.41320       -0.87180       -1.10970
H          3.09540       -1.98700       -2.45780
H          3.70790        0.71130       -3.49710
H          3.96430       -1.55240       -4.72630
H          5.41950       -0.50700       -4.79180
H          5.35240       -1.90790       -3.65390
H          4.99200        1.12610       -1.46730
H          6.10490        0.83560       -2.82520
H          5.82170       -0.47050       -1.61050
H          1.43200        1.42920       -3.99330
H         -0.14050        0.64370       -3.95330
H          1.75960       -1.34940       -4.91580
H          2.59100       -0.27000       -6.98850
H          1.82130        1.29740       -6.52850
H          3.20980        0.66680       -5.60270
H         -0.38300        0.22120       -6.47790
H          0.35470       -1.36050       -6.93510
H         -0.70030       -1.24820       -5.50380
H          1.43620        2.68010        2.33290
H         -0.33310        2.49370        2.31610
H          0.58000        0.77580        4.43050
H          1.79710        3.60180        4.73520
H          2.78050        2.18400        4.31180
H          1.91660        2.21220        5.88270
H         -1.57630        2.11910        4.41190
H         -0.63200        2.33200        5.91160
H         -0.61980        3.60990        4.63730
H          2.55830       -1.02270        0.85290
H          2.01620       -1.46720        2.44770
H          3.39390        1.21390        2.37450
H          3.99240       -1.37540        3.97630
H          4.55070        0.29880        4.36020
H          2.81270       -0.13190        4.49730
H          4.72040        0.12910        0.61730
H          5.68290        0.27820        2.11660
H          4.98030       -1.32250        1.64880
H         -1.89120       -0.07480        3.88410
H         -2.24420        1.04540        2.56500
H         -4.15250       -0.44410        1.82540
H         -4.29980        0.53720        4.72730
H         -5.69280        0.26560        3.60620
H         -4.49790        1.55960        3.25470
H         -3.73180       -1.95130        4.46150
H         -3.44230       -2.62160        2.79550
H         -5.08320       -2.14420        3.29580
H          0.34000       -2.94400        2.10110
H         -1.36490       -3.31370        1.96900
H         -1.49630       -2.15120        4.41080
H          0.52330       -2.54780        5.74770
H          1.43140       -3.07790        4.27840
H          0.85200       -1.37940        4.43920
H         -0.33320       -4.94600        3.90610
H         -2.08360       -4.49720        3.91240
H         -1.12770       -4.37200        5.42590
H          3.28010        1.79530       -0.19970
H          2.28800        3.21090        0.18510
H          5.02830        3.36490       -1.06820
H          4.80080        4.58230       -2.38190
H          3.98010        4.82130       -0.79210
