144
mol3-D-1
C          0.49330       -2.84130       -4.36460
S          1.13620       -2.65880       -2.66820
C          0.16900       -1.15920       -2.25230
C          0.13220       -0.32290       -0.93280
C          1.69800        0.59930       -0.77410
C          3.12470       -0.29410       -1.00030
C          4.57280        0.32430       -1.03570
C          3.34580       -1.50080       -2.01520
C          1.86240        1.68870       -2.07420
C          2.74380        1.32370       -3.33270
C          1.98350        3.27950       -2.21040
C          1.65970        1.26660        0.85610
C          2.76760        0.65010        2.04610
C          4.21420       -0.02470        1.90350
C          3.15950        1.48560        3.36230
C          2.21980        2.83280        0.83480
C          2.29580        3.90320        2.00940
C          3.63390        3.04140        0.25570
C         -0.02490       -1.57040        0.35400
C          1.33270       -2.61820        0.34790
C          1.40780       -3.99330       -0.43640
C          2.36610       -2.91590        1.48040
C         -1.12060       -2.79260        0.07600
C         -1.35040       -3.71030       -1.20830
C         -1.17760       -3.87020        1.21440
C         -0.48100       -0.64960        1.80990
C         -2.11420       -0.78110        2.29310
C         -2.50230       -0.34480        3.75670
C         -3.31300       -1.79990        2.04270
C          0.18000       -1.30270        3.21940
C         -0.48860       -2.52620        3.95390
C          0.80190       -0.50430        4.41410
C         -0.06780        1.07410        1.39080
C         -1.30930        1.79820        0.28500
C         -2.67510        2.22900        1.27420
C         -4.15940        1.73510        1.23270
C         -2.85030        3.68160        1.86480
C         -1.07310        3.31980       -0.36750
C         -2.31080        3.96890       -1.13860
C         -0.48930        4.62380        0.31250
C         -1.35860        0.69070       -1.11690
C         -2.87480       -0.10640       -1.13750
C         -4.15650        0.75420       -1.45010
C         -3.33650       -1.43300       -1.88250
C         -1.56680        1.38120       -2.70850
C         -2.15040        0.50010       -3.89610
C         -0.82230        2.50030       -3.54360
C         -0.10810        2.03000        2.65320
S         -1.05130        2.19730        4.23560
C         -0.21120        3.67930        4.88030
H         -0.60540       -2.99570       -4.34440
H          0.73450       -1.94160       -4.96690
H          0.96960       -3.72480       -4.83620
H         -0.81120       -1.33370       -2.62770
H          0.57220       -0.48890       -2.93390
H          3.12750       -0.77190       -0.07510
H          5.32720       -0.49030       -0.93530
H          4.84690        0.81680       -1.97690
H          4.89810        0.95780       -0.23190
H          3.73050       -2.39080       -1.47010
H          4.15020       -1.32050       -2.76450
H          2.53600       -1.83190       -2.63810
H          0.89890        1.50900       -2.42240
H          2.23480        1.65260       -4.26520
H          2.97210        0.28980       -3.53880
H          3.70600        1.87480       -3.36220
H          1.37190        3.98420       -1.66010
H          3.01590        3.67570       -2.19760
H          1.70910        3.57900       -3.24490
H          2.19540       -0.15310        2.40950
H          4.46250       -0.53530        2.86250
H          4.47400       -0.89470        1.28780
H          5.03610        0.71250        1.80820
H          3.38800        0.77990        4.19210
H          2.52980        2.19650        3.90380
H          4.10060        2.05960        3.22630
H          1.53190        3.27270        0.17870
H          3.25450        3.91720        2.56230
H          2.29960        4.91830        1.55090
H          1.51640        3.98950        2.76510
H          3.78720        2.56190       -0.68620
H          4.42370        2.73440        0.96700
H          3.82210        4.11490        0.02720
H          1.84710       -2.15020       -0.37200
H          0.97770       -4.83780        0.13120
H          2.45970       -4.31630       -0.60530
H          1.08510       -3.99820       -1.48590
H          3.30150       -3.37680        1.09430
H          2.78770       -2.06510        1.98150
H          1.95610       -3.63550        2.22020
H         -1.99330       -2.23290        0.04240
H         -2.43230       -3.95820       -1.27600
H         -0.92300       -4.73030       -1.15760
H         -1.02780       -3.40540       -2.20380
H         -2.14990       -3.95640        1.70030
H         -1.07940       -4.92600        0.89280
H         -0.32420       -3.79980        1.88760
H         -2.47050       -0.06030        1.68280
H         -3.02550       -1.13700        4.33830
H         -3.21570        0.50370        3.76750
H         -1.68920       -0.16420        4.43200
H         -3.35020       -2.64680        2.75150
H         -3.63980       -2.13740        1.05560
H         -4.26300       -1.27830        2.30650
H          1.01560       -1.76870        2.86510
H          0.22900       -3.37070        4.06460
H         -1.39670       -2.90930        3.50890
H         -0.82200       -2.30540        4.98970
H          1.73580       -1.00840        4.75280
H          1.06630        0.50420        4.23300
H          0.18100       -0.44980        5.33050
H         -2.42600        1.80510        2.21060
H         -4.34350        0.67570        1.05120
H         -4.61670        1.82370        2.24460
H         -4.81110        2.39640        0.62590
H         -3.33440        4.39060        1.17060
H         -1.96070        4.13210        2.31680
H         -3.53500        3.67480        2.74350
H         -0.32080        3.05790       -1.06690
H         -2.23190        4.05660       -2.22530
H         -2.49720        5.04380       -0.93080
H         -3.27450        3.55790       -0.86830
H         -1.24160        5.34170        0.69400
H          0.16030        4.56430        1.14870
H          0.04750        5.22570       -0.44920
H         -3.00970       -0.39760       -0.14310
H         -4.07490        1.78820       -1.21500
H         -5.05890        0.32960       -0.95660
H         -4.45080        0.79690       -2.51190
H         -2.65550       -2.06420       -2.41220
H         -4.05740       -1.27460       -2.71520
H         -3.91800       -2.08040       -1.19280
H         -2.43420        1.99040       -2.52560
H         -1.61510        0.64270       -4.86070
H         -3.17960        0.79530       -4.17860
H         -2.11310       -0.57680       -3.80840
H         -0.43050        3.38170       -3.04250
H         -0.03710        2.09280       -4.21020
H         -1.53840        2.96030       -4.26580
H         -0.24700        2.98690        2.24650
H          0.84280        2.06290        3.00310
H         -0.31700        4.52540        4.17130
H         -0.68260        3.96580        5.84230
H          0.86010        3.46260        5.06530
