72
mol35-E-0
C          5.82090        0.06780       -0.59070
S          4.21440       -0.71090       -0.23890
C          3.26400        0.83000       -0.39810
Si         1.40290        0.64370       -0.12190
Si         0.84060        3.04650       -0.08070
C          1.50700        4.07610        1.45120
Cl         0.41360        4.07310        2.80010
Cl         1.71290        5.82420        1.17870
Cl         3.10160        3.52690        2.00660
C          1.85910        4.03950       -1.43520
Cl         3.57910        4.22630       -1.00600
Cl         1.93630        3.28790       -2.98380
Cl         1.22590        5.66620       -1.78410
Si        -1.54570        3.19920       -0.23140
C         -2.08520        4.21400       -1.83630
Cl        -1.09210        3.93110       -3.25100
Cl        -1.94830        5.97930       -1.63730
Cl        -3.79190        3.96400       -2.29700
C         -2.48650        4.37620        1.05170
Cl        -4.10980        4.90540        0.54230
Cl        -1.61610        5.88870        1.41460
Cl        -2.85760        3.61880        2.56610
Si         0.83950       -0.51340        2.02110
C          2.09700        0.18960        3.41190
Cl         1.72300        1.73310        4.10020
Cl         3.74210        0.34780        2.77610
Cl         2.31330       -0.75770        4.90570
C          1.18510       -2.42270        2.45190
Cl         0.52770       -3.71440        1.48900
Cl         2.93290       -2.77800        2.49620
Cl         0.45940       -2.88050        4.01270
Si        -1.54110       -0.14960        2.25110
C         -1.84110        0.65050        4.04580
Cl        -1.19460        2.20750        4.47620
Cl        -3.58040        0.80050        4.41340
Cl        -1.05720       -0.30790        5.32610
C         -2.76350       -1.70370        2.56780
Cl        -2.91530       -2.32920        4.22950
Cl        -2.39250       -3.17630        1.73730
Cl        -4.43110       -1.31830        2.11300
Si        -2.19330        0.85530        0.05720
Si        -1.66930       -0.61520       -1.85450
C         -2.30180       -2.46890       -1.73330
Cl        -1.16490       -3.52600       -0.95550
Cl        -2.54520       -3.30720       -3.28580
Cl        -3.86820       -2.60760       -0.90860
C         -2.74790       -0.14850       -3.42840
Cl        -2.15320       -0.83910       -4.95750
Cl        -4.45570       -0.63170       -3.26290
Cl        -2.86350        1.53890       -3.75720
Si         0.70800       -0.54770       -2.14540
C          1.67090       -2.26530       -2.34420
Cl         3.26770       -2.15080       -3.12610
Cl         2.10390       -3.01210       -0.84090
Cl         0.78820       -3.48000       -3.30460
C          1.17770        0.13110       -3.93830
Cl         2.87240        0.67730       -4.07180
Cl         0.14360        1.41450       -4.53080
Cl         1.01860       -1.09290       -5.22340
C         -4.06530        0.93310       -0.19670
S         -4.98460        1.71810        1.16040
C         -6.61420        1.50390        0.38000
H          6.03480        0.85760        0.15940
H          5.81570        0.50780       -1.60980
H          6.61570       -0.70380       -0.53700
H          3.67130        1.56680        0.30990
H          3.41200        1.23820       -1.41390
H         -4.25320        1.49580       -1.12860
H         -4.46120       -0.08230       -0.34570
H         -7.39420        1.91210        1.05460
H         -6.81610        0.42620        0.20710
H         -6.65000        2.05320       -0.58390
