144
mol3-D-0
C          0.36700       -2.32980       -4.69500
S          0.63620       -0.69320       -3.93810
C          0.18010       -1.18790       -2.23380
C          0.14030       -0.34240       -0.92030
C          1.70070        0.59050       -0.77070
C          3.13250       -0.29580       -0.99280
C          4.57680        0.33110       -1.03500
C          3.35930       -1.50840       -1.99940
C          1.85640        1.67150       -2.07890
C          2.73800        1.30280       -3.33610
C          1.96760        3.26200       -2.22670
C          1.66090        1.26920        0.85470
C          2.77440        0.66810        2.04730
C          4.22490        0.00110        1.90720
C          3.16330        1.51540        3.35690
C          2.21140        2.83870        0.82130
C          2.28270        3.91780        1.98800
C          3.62330        3.05170        0.23840
C         -0.00710       -1.58150        0.37570
C          1.35680       -2.62110        0.37490
C          1.43910       -4.00130       -0.39960
C          2.39390       -2.90430        1.50780
C         -1.09580       -2.81240        0.10820
C         -1.32200       -3.74070       -1.16910
C         -1.14440       -3.88210        1.25450
C         -0.46660       -0.65310        1.82570
C         -2.09810       -0.79110        2.31250
C         -2.48660       -0.34660        3.77350
C         -3.29110       -1.81890        2.07140
C          0.20060       -1.29200        3.23880
C         -0.45930       -2.51430        3.98310
C          0.81960       -0.48120        4.42670
C         -0.06460        1.07010        1.39360
C         -1.31220        1.77860        0.28460
C         -2.67900        2.20820        1.27290
C         -4.16030        1.70490        1.23740
C         -2.86210        3.66390        1.85340
C         -1.08630        3.29690       -0.37920
C         -2.32910        3.93280       -1.15290
C         -0.50940        4.60930        0.29060
C         -1.35690        0.66080       -1.10930
C         -2.86820       -0.14560       -1.12170
C         -4.15570        0.70480       -1.43830
C         -3.32300       -1.48040       -1.85640
C         -1.57190        1.33850       -2.70540
C         -2.15190        0.44540       -3.88570
C         -0.83550        2.45620       -3.54970
C         -0.10870        2.03470        2.64910
S         -1.05040        2.20760        4.23180
C         -0.21830        3.69930        4.86450
H          1.04540       -3.08020       -4.23860
H         -0.68740       -2.64740       -4.56150
H          0.58530       -2.26420       -5.78030
H          0.64360       -2.13200       -2.07280
H         -0.81830       -1.43090       -2.37690
H          3.13960       -0.76700       -0.06420
H          5.33620       -0.47810       -0.93000
H          4.84630        0.81850       -1.98010
H          4.89940        0.97240       -0.23630
H          3.75030       -2.39210       -1.44850
H          4.16150       -1.32860       -2.75120
H          2.55060       -1.84890       -2.61850
H          0.89350        1.48340       -2.42420
H          2.22550        1.62190       -4.27010
H          2.97230        0.26890       -3.53520
H          3.69680        1.85950       -3.37120
H          1.35260        3.96690       -1.68040
H          2.99760        3.66460       -2.21840
H          1.68970        3.55240       -3.26290
H          2.20780       -0.13600        2.41740
H          4.47780       -0.50110        2.86940
H          4.48900       -0.87170        1.29730
H          5.04220        0.74260        1.80530
H          3.39740        0.81700        4.19130
H          2.53020        2.22630        3.89420
H          4.10070        2.09410        3.21520
H          1.51980        3.26960        0.16310
H          3.24210        3.94160        2.53920
H          2.27960        4.92970        1.52220
H          1.50400        4.00490        2.74440
H          3.77800        2.56640       -0.70030
H          4.41610        2.75460        0.95060
H          3.80450        4.12470        0.00190
H          1.86720       -2.15510       -0.34920
H          1.01500       -4.84420        0.17470
H          2.49270       -4.31900       -0.56790
H          1.11470       -4.01570       -1.44860
H          3.33140       -3.36220        1.12350
H          2.81100       -2.04740        2.00210
H          1.98940       -3.62100        2.25350
H         -1.97190       -2.25820        0.07210
H         -2.40250       -3.99560       -1.23330
H         -0.88830       -4.75770       -1.11170
H         -1.00280       -3.44090       -2.16730
H         -2.11540       -3.97070        1.74250
H         -1.04030       -4.93950        0.94030
H         -0.29040       -3.80160        1.92570
H         -2.45980       -0.07680        1.69760
H         -3.00400       -1.13780        4.36170
H         -3.20510        0.49760        3.77940
H         -1.67360       -0.15630        4.44620
H         -3.32200       -2.66090        2.78620
H         -3.61740       -2.16550        1.08720
H         -4.24380       -1.30130        2.33290
H          1.03850       -1.75550        2.88650
H          0.26360       -3.35350        4.09870
H         -1.36580       -2.90610        3.54240
H         -0.79240       -2.28800        5.01780
H          1.75710       -0.97720        4.76750
H          1.07750        0.52750        4.23800
H          0.19980       -0.42390        5.34370
H         -2.42590        1.79250        2.21190
H         -4.33830        0.64310        1.06380
H         -4.61660        1.79810        2.24930
H         -4.81710        2.35790        0.62690
H         -3.35160        4.36490        1.15480
H         -1.97460        4.12300        2.30060
H         -3.54550        3.65920        2.73320
H         -0.33350        3.03460       -1.07790
H         -2.25250        4.01330       -2.24030
H         -2.52180        5.00810       -0.95250
H         -3.28990        3.51790       -0.87810
H         -1.26540        5.32530        0.66800
H          0.14190        4.55970        1.12610
H          0.02250        5.20890       -0.47630
H         -2.99980       -0.43050       -0.12490
H         -4.08000        1.74090       -1.21080
H         -5.05470        0.27830       -0.94030
H         -4.45190        0.73810       -2.49990
H         -2.63900       -2.11120       -2.38260
H         -4.04620       -1.33240       -2.68900
H         -3.89950       -2.12630       -1.16110
H         -2.44270        1.94380       -2.52550
H         -1.61900        0.58440       -4.85220
H         -3.18330        0.73230       -4.16860
H         -2.10790       -0.63060       -3.79030
H         -0.44830        3.34350       -3.05560
H         -0.04880        2.04870       -4.21470
H         -1.55550        2.90660       -4.27400
H         -0.25410        2.98790        2.23580
H          0.84260        2.07590        2.99730
H         -0.33040        4.53970        4.14960
H         -0.68990        3.98980        5.82520
H          0.85450        3.49050        5.04930
