72
mol34-A-1
C         -2.68850       -5.62380        1.14440
S         -2.58360       -3.81530        0.97360
C         -1.04870       -3.84950        0.00050
Si        -0.47720       -2.12360       -0.46200
Si        -2.23640       -1.26230       -1.66670
C         -3.86320       -1.49510       -0.74340
F         -4.20340       -2.83440       -0.74910
F         -3.77110       -1.07510        0.55700
F         -4.86120       -0.77650       -1.37290
C         -2.61480       -2.19340       -3.26090
F         -3.92640       -1.96860       -3.63230
F         -1.80610       -1.76320       -4.28450
F         -2.44330       -3.54900       -3.06320
Si        -1.82090        0.91810       -2.13460
C         -3.09340        2.00200       -1.27270
F         -4.26140        2.01980       -2.01070
F         -2.61220        3.29320       -1.17530
F         -3.38800        1.51300       -0.02220
C         -2.16370        1.32210       -3.94360
F         -2.30920        2.68810       -4.09090
F         -3.33540        0.70960       -4.34230
F         -1.13890        0.90070       -4.75250
Si         1.42580       -2.19610       -1.75890
C          3.02640       -2.74420       -0.92490
F          2.80530       -3.86040       -0.14670
F          3.96070       -3.06520       -1.89000
F          3.54780       -1.73790       -0.15080
C          1.23610       -3.52830       -3.07700
F          2.29920       -3.47440       -3.95700
F          0.07240       -3.37240       -3.78390
F          1.21960       -4.76820       -2.46770
Si         1.76750       -0.12220       -2.62750
C          3.54630        0.47090       -2.44860
F          3.70540        1.64460       -3.16000
F          4.41230       -0.48010       -2.95170
F          3.86690        0.70710       -1.13720
C          1.62060       -0.25030       -4.50360
F          1.54130        1.00570       -5.06640
F          2.73870       -0.88350       -5.00990
F          0.51960       -0.98690       -4.86220
Si         0.35700        1.34610       -1.54900
Si         0.61800        1.18150        0.72970
C         -0.27570        2.58640        1.61340
F         -0.29600        2.34140        2.97280
F         -1.56470        2.72320        1.17100
F          0.39600        3.77160        1.38140
C          2.38060        1.46900        1.33160
F          2.36300        1.86240        2.65590
F          2.97220        2.46970        0.58680
F          3.12370        0.31710        1.24270
Si        -0.10150       -0.85750        1.41550
C          1.12680       -1.67340        2.58960
F          0.49200       -2.67640        3.29640
F          1.60380       -0.73770        3.48640
F          2.18360       -2.21980        1.90640
C         -1.59690       -0.65420        2.53790
F         -2.29670       -1.84380        2.59720
F         -1.17700       -0.32410        3.81220
F         -2.41630        0.35290        2.08600
C          0.81240        3.12600       -1.92830
S          0.65360        3.50180       -3.69970
C          1.17870        5.23560       -3.52870
H         -3.59330       -5.87950        1.73280
H         -1.79360       -6.00940        1.67560
H         -2.76510       -6.09770        0.14360
H         -0.24920       -4.33860        0.59230
H         -1.21580       -4.42460       -0.93320
H          0.14010        3.79030       -1.34780
H          1.86000        3.29740       -1.60860
H          2.20940        5.28360       -3.11990
H          1.16600        5.71740       -4.52760
H          0.48230        5.78080       -2.85800
