84
mol36-B-1
C          1.53250       -5.51380        0.90950
S          0.82860       -4.12820       -0.03640
C          1.26500       -2.87050        1.20360
Si         0.71520       -1.16350        0.65770
Si        -1.51860       -1.01760        0.53820
C         -2.11230       -2.05360       -0.87600
C         -1.92810       -3.37350       -0.89590
C         -2.29160       -1.54650        2.13540
C         -3.33210       -2.37890        2.18070
Si        -2.08400        1.11570        0.18060
C         -2.55880        1.91130        1.78010
C         -3.03510        3.15530        1.82020
C         -3.52990        1.17640       -0.96820
C         -4.67750        0.57150       -0.66170
Si         1.47580        0.49700        1.97390
C          0.49060        0.61600        3.53950
C          0.59150       -0.27730        4.52270
C          3.28170        0.30420        2.34700
C          3.78110       -0.79490        2.91170
Si         1.20420        2.44730        0.88640
C          2.80750        2.96480        0.12310
C          3.04390        4.23310       -0.21100
C          0.65380        3.74450        2.08310
C          1.40310        4.07270        3.13560
Si        -0.34580        2.20440       -0.71030
Si         0.50810        0.92530       -2.33910
C          1.77430        1.86480       -3.31020
C          1.79080        1.86590       -4.64340
C         -0.87160        0.33540       -3.42200
C         -1.63660        1.19200       -4.09840
Si         1.52850       -0.83190       -1.40210
C          3.34790       -0.51570       -1.30530
C          4.19040       -1.43880       -0.84290
C          1.23870       -2.32460       -2.45210
C          1.62800       -2.35440       -3.72660
C         -0.96370        3.85890       -1.33570
S          0.31930        4.71160       -2.30380
C         -0.71140        6.16850       -2.65820
H          1.39330       -6.45190        0.33430
H          1.01390       -5.61090        1.88600
H          2.61790       -5.35080        1.07440
H          0.78590       -3.11120        2.17230
H          2.36450       -2.85960        1.34400
H         -2.62220       -1.57140       -1.70260
H         -1.43120       -3.88240       -0.07630
H         -2.28290       -3.95730       -1.73860
H         -1.89720       -1.13790        3.05900
H         -3.76250       -2.65310        3.13810
H         -3.77170       -2.78590        1.27670
H         -2.45900        1.34700        2.70010
H         -3.30870        3.59990        2.77120
H         -3.16180        3.73690        0.91300
H         -3.44090        1.71790       -1.90290
H         -4.79060        0.02360        0.26910
H         -5.51570        0.61940       -1.34870
H         -0.18400        1.45580        3.66010
H         -0.00660       -0.16160        5.42020
H          1.26740       -1.11930        4.45560
H          3.95110        1.12170        2.10440
H          3.14870       -1.63270        3.17730
H          4.84490       -0.86250        3.11380
H          3.57040        2.21690       -0.05410
H          2.30380        5.00710       -0.03550
H          3.99240        4.50680       -0.66080
H         -0.29280        4.24680        1.91870
H          2.35490        3.58340        3.31930
H          1.06290        4.83760        3.82550
H          2.54090        2.40770       -2.76860
H          1.05650        1.31350       -5.21940
H          2.55780        2.42100       -5.17300
H         -1.05560       -0.72980       -3.50600
H         -1.46830        2.26240       -4.03700
H         -2.44130        0.82170       -4.72450
H          3.73620        0.43570       -1.64890
H          5.25370       -1.22810       -0.79930
H          3.83510       -2.41000       -0.51640
H          0.74560       -3.18820       -2.02110
H          2.12280       -1.50120       -4.18120
H          1.44870       -3.23960       -4.32750
H         -1.24900        4.48280       -0.46470
H         -1.85660        3.68770       -1.97040
H         -0.12660        6.88460       -3.27090
H         -1.61670        5.86640       -3.22480
H         -1.00860        6.66480       -1.71110
