180
mol39-D-1
C          4.12910        3.31550        3.50720
S          2.50150        2.92410        2.79250
C          3.05790        1.43460        1.94020
Si         1.72360        0.52700        0.95790
Si         2.43470       -1.39860       -0.40030
Si         4.44130       -0.73910       -1.42510
C          5.25900       -1.80360       -2.73100
C          5.83950       -0.55000       -0.17740
C          4.31190        0.92380       -2.19990
Si         3.43950       -3.40300        0.30370
C          5.25070       -3.49400        0.80270
C          2.55650       -4.15900        1.72830
C          3.43820       -4.65790       -1.06390
Si         0.44990       -2.10550       -1.57730
Si        -0.45890       -4.30880       -1.75610
C         -1.06010       -4.83950       -3.45300
C         -2.05510       -4.47960       -0.83730
C          0.50820       -5.84150       -1.28190
Si         1.14450       -2.10230       -3.80940
C          2.36790       -3.46720       -4.19450
C          2.02220       -0.52810       -4.20280
C         -0.14040       -2.30660       -5.16880
Si         0.72590        2.37100       -0.30560
Si         1.73800        3.55100       -2.07490
C          0.94330        5.22570       -2.37120
C          3.54340        4.04830       -1.90370
C          1.61110        2.68620       -3.71130
Si         0.77920        4.28850        1.02980
C          0.43000        3.88170        2.78220
C         -0.35480        5.70890        0.58700
C          2.45360        5.12910        1.12030
Si        -1.38120        1.57310       -1.02070
Si        -3.11550        3.04410       -0.37100
C         -4.86180        2.34960       -0.46990
C         -2.95460        3.86100        1.30770
C         -3.26420        4.53200       -1.51090
Si        -2.03930        1.77250       -3.26410
C         -3.87640        1.47510       -3.52070
C         -1.25570        0.49530       -4.31470
C         -1.72010        3.37290       -4.18690
Si        -1.30410       -0.79900       -0.50760
Si        -1.37120       -1.36270        1.84520
Si        -1.67110       -3.53700        2.67980
C         -1.49380       -3.57400        4.53710
C         -0.53330       -4.82080        1.98470
C         -3.35570       -4.34220        2.44420
Si        -3.47030       -0.75010        2.60750
C         -3.76410       -1.14200        4.41020
C         -4.95570       -1.44300        1.67860
C         -3.71550        1.04300        2.45930
Si         0.52090       -0.32970        2.85950
Si         2.18360       -1.47190        4.12870
C          2.85430       -0.61990        5.66600
C          1.74510       -3.14870        4.82870
C          3.83400       -1.62460        3.27470
Si        -0.11780        0.93070        4.75270
C         -0.48250       -0.12280        6.27290
C         -1.62890        2.01760        4.70570
C          1.24650        2.10080        5.31350
C         -3.01460       -1.32450       -1.07870
S         -3.08490       -1.81590       -2.82200
C         -4.86550       -2.19480       -2.80110
H          4.02940        4.20130        4.16700
H          4.50310        2.45960        4.10690
H          4.85140        3.55040        2.69780
H          3.92180        1.67080        1.31410
H          3.42680        0.74240        2.70870
H          4.73650       -1.74120       -3.69730
H          6.28580       -1.41810       -2.89780
H          5.34570       -2.84830       -2.39810
H          5.44590       -0.55770        0.85490
H          6.38770        0.39720       -0.34870
H          6.58780       -1.35430       -0.30160
H          5.17420        1.55860       -1.91750
H          4.29690        0.84020       -3.30280
H          3.38070        1.35280       -1.81220
H          5.42910       -4.47560        1.28740
H          5.54970       -2.71060        1.51700
H          5.89340       -3.45850       -0.09690
H          2.15870       -5.14990        1.45460
H          3.24260       -4.33130        2.57650
H          1.76530       -3.44460        2.00260
H          2.60670       -4.40960       -1.72770
H          4.38050       -4.64250       -1.63860
H          3.32820       -5.67780       -0.64480
H         -1.82210       -4.14470       -3.84460
H         -1.54750       -5.83130       -3.35380
H         -0.22530       -4.96280       -4.16160
H         -2.03250       -3.74500       -0.03500
H         -2.16440       -5.50270       -0.42740
H         -2.92000       -4.29000       -1.49930
H          1.01940       -5.71790       -0.32060
H          1.22340       -6.11010       -2.08470
H         -0.19530       -6.69300       -1.18110
H          3.26320       -3.36750       -3.56920
H          2.67140       -3.39310       -5.25870
H          1.92760       -4.46480       -4.01880
H          1.48000        0.04750       -4.97270
H          2.07070        0.03550       -3.26040
H          3.02810       -0.73110       -4.60720
H         -0.01140       -3.28060       -5.68000
H         -0.00740       -1.51950       -5.93760
H         -1.16160       -2.23970       -4.76760
H         -0.12810        5.19680       -2.13850
H          1.42640        6.00050       -1.74800
H          1.07680        5.52240       -3.43120
H          3.65050        5.14630       -2.01100
H          3.94200        3.76250       -0.92340
H          4.14940        3.58950       -2.70860
H          2.58300        2.25160       -4.00430
H          1.30520        3.38980       -4.51050
H          0.85700        1.90280       -3.59700
H          1.31650        4.13230        3.39640
H          0.24490        2.80230        2.78120
H         -0.44310        4.44140        3.17170
H          0.22040        6.53740        0.13050
H         -0.83980        6.10630        1.50100
H         -1.12210        5.37380       -0.11690
H          3.24430        4.41310        1.38900
H          2.69940        5.62670        0.16630
H          2.41550        5.91160        1.90560
H         -5.48080        2.79280        0.33630
H         -5.34550        2.62270       -1.42540
H         -4.87040        1.25390       -0.37720
H         -2.96340        4.96330        1.21930
H         -2.01190        3.53680        1.76260
H         -3.81000        3.60480        1.96040
H         -3.67260        5.39980       -0.95490
H         -2.28580        4.80640       -1.92820
H         -3.96540        4.32320       -2.33830
H         -4.05130        1.00250       -4.50800
H         -4.42600        2.43360       -3.51980
H         -4.28090        0.81510       -2.73680
H         -0.58360        0.95410       -5.06380
H         -0.71130       -0.13790       -3.60950
H         -2.02360       -0.08500       -4.86070
H         -1.49550        3.15230       -5.24990
H         -2.61030        4.02860       -4.17190
H         -0.86750        3.90090       -3.75430
H         -0.93260       -4.47580        4.85360
H         -0.97160       -2.66070        4.85540
H         -2.48800       -3.61100        5.02250
H         -0.02970       -4.36190        1.12370
H          0.18260       -5.17410        2.74780
H         -1.10630       -5.70590        1.64610
H         -3.65320       -4.38620        1.38190
H         -4.13180       -3.82280        3.03320
H         -3.30200       -5.38320        2.82340
H         -4.43020       -0.37850        4.86040
H         -2.80100       -1.14120        4.93780
H         -4.25250       -2.12730        4.52290
H         -5.83140       -1.45040        2.35910
H         -4.79260       -2.46250        1.30510
H         -5.20560       -0.80290        0.81230
H         -4.59450        1.23310        1.83280
H         -2.78510        1.41160        2.00530
H         -3.94820        1.51530        3.42760
H          2.10080       -0.50150        6.45900
H          3.65780       -1.25680        6.09010
H          3.31540        0.35000        5.40030
H          2.67760       -3.69810        5.06990
H          1.16730       -3.03820        5.76620
H          1.16930       -3.73640        4.10790
H          4.55970       -0.88020        3.66040
H          4.27750       -2.61580        3.47800
H          3.70440       -1.43070        2.20650
H         -1.56790       -0.19080        6.46700
H         -0.03480        0.35200        7.16910
H         -0.07210       -1.13780        6.17090
H         -2.50450        1.42600        5.02490
H         -1.77840        2.45400        3.71220
H         -1.51480        2.84370        5.43620
H          2.07080        2.11990        4.58030
H          0.84410        3.12470        5.43990
H          1.64280        1.80030        6.30200
H         -3.39330       -2.14220       -0.45210
H         -3.68390       -0.46940       -0.92610
H         -5.07340       -3.01870       -2.08740
H         -5.44790       -1.29630       -2.51050
H         -5.17800       -2.51240       -3.81660
