144
mol31-E-1
C          4.43710        1.54720       -3.49250
S          3.65100        1.40990       -1.85620
C          2.26760        0.38720       -2.42670
Si         0.96940       -0.15820       -1.13140
Si        -0.19490       -2.07400       -1.87930
C         -0.78980       -1.80660       -3.69280
C          0.33630       -1.73690       -4.73310
C         -1.82750       -2.83650       -4.16260
C          0.88990       -3.66980       -1.91030
C          0.16170       -4.90070       -2.46770
C          2.20830       -3.53890       -2.67740
Si        -1.94850       -2.33240       -0.31840
C         -3.52750       -1.29250       -0.76320
C         -4.04740       -1.33500       -2.20770
C         -4.72270       -1.52050        0.17590
C         -2.66550       -4.13240        0.00350
C         -3.56580       -4.69970       -1.11070
C         -1.65730       -5.20550        0.44680
Si        -0.57980        1.58170       -0.52700
C          0.25980        3.33280       -0.37500
C         -0.66860        4.52650       -0.61960
C          1.54210        3.52700       -1.18060
C         -1.86540        1.69930       -1.99260
C         -3.17380        2.44570       -1.69900
C         -1.31000        2.22150       -3.32580
Si        -1.55710        0.96700        1.60510
C         -3.44830        1.41070        1.77100
C         -4.20140        0.78330        2.95400
C         -3.71100        2.91850        1.76910
C         -0.74990        1.82600        3.16010
C         -0.47760        3.33700        3.00220
C         -1.53310        1.62650        4.46470
Si        -1.16880       -1.36180        1.71050
Si         1.11810       -1.82360        2.22750
C          1.07100       -3.75150        2.26940
C          2.31570       -4.53720        1.86520
C          0.52400       -4.34840        3.57710
C          1.81160       -1.17950        3.91940
C          0.77270       -1.09490        5.02360
C          3.03870       -1.92920        4.46200
Si         2.44240       -0.77240        0.59270
C          3.34960        0.86160        1.11940
C          2.45220        1.85040        1.83450
C          4.65590        0.70390        1.90390
C          3.89610       -1.90190       -0.02760
C          4.83700       -1.25940       -1.07180
C          4.75060       -2.48420        1.10590
C         -2.29350       -2.39240        2.86940
S         -2.32550       -1.98500        4.64270
C         -3.52400       -3.28280        5.08220
H          5.35330        2.16560       -3.40180
H          4.71920        0.54080       -3.86620
H          3.74450        2.03490       -4.20980
H          2.68320       -0.49750       -2.93260
H          1.77140        0.97030       -3.20190
H         -1.26700       -0.81500       -3.69300
H          1.25220       -1.29860       -4.31760
H          0.59570       -2.73860       -5.13160
H          0.01240       -1.11290       -5.59340
H         -2.45930       -2.39380       -4.96180
H         -1.36240       -3.75230       -4.57570
H         -2.47790       -3.14890       -3.33660
H          1.13690       -3.85880       -0.84850
H          0.24150       -4.97150       -3.57160
H         -0.90520       -4.88010       -2.22370
H          0.60660       -5.82490       -2.04100
H          2.64080       -2.55400       -2.52970
H          2.92970       -4.30310       -2.31670
H          2.09230       -3.68520       -3.76790
H         -3.19460       -0.26880       -0.59630
H         -3.28770       -1.02340       -2.92840
H         -4.87500       -0.60360       -2.32970
H         -4.44360       -2.32260       -2.49560
H         -5.57630       -0.87140       -0.11550
H         -4.47690       -1.23410        1.20060
H         -5.07910       -2.56510        0.17350
H         -3.35390       -4.01030        0.86270
H         -3.96900       -5.68970       -0.80760
H         -3.03610       -4.84280       -2.06370
H         -4.45680       -4.07880       -1.27840
H         -2.00390       -6.23160        0.20100
H         -1.53320       -5.19950        1.54410
H         -0.67820       -5.07600       -0.02630
H          0.57660        3.43140        0.66090
H         -1.56030        4.47460        0.02290
H         -0.14560        5.47130       -0.35650
H         -0.97380        4.60230       -1.68020
H          2.24750        2.71300       -0.97610
H          1.34630        3.61210       -2.26270
H          2.04580        4.46620       -0.86540
H         -2.13340        0.65980       -2.19160
H         -3.85820        2.37510       -2.57170
H         -3.01080        3.51710       -1.49160
H         -3.72970        1.98790       -0.88520
H         -0.90730        1.38590       -3.92190
H         -0.54740        3.00040       -3.18570
H         -2.10030        2.66210       -3.97060
H         -3.95770        0.99950        0.90050
H         -4.16490        1.40310        3.86910
H         -5.27840        0.68040        2.69800
H         -3.82190       -0.21830        3.18300
H         -3.21620        3.40100        0.91520
H         -3.35500        3.39280        2.70500
H         -4.80130        3.11320        1.67750
H          0.21330        1.31310        3.32070
H         -0.71480        3.91430        3.92210
H         -1.08020        3.77800        2.18990
H          0.59750        3.52860        2.83100
H         -2.32880        2.38830        4.58680
H         -1.99040        0.63240        4.51500
H         -0.84740        1.73270        5.33300
H          0.33800       -3.94930        1.48740
H          2.67100       -4.23720        0.87160
H          3.11450       -4.45440        2.62750
H          2.05910       -5.61540        1.78210
H         -0.22380       -3.70170        4.05050
H          0.04550       -5.32900        3.37110
H          1.32370       -4.53140        4.32030
H          2.13730       -0.14690        3.73590
H          1.16090       -0.49020        5.87120
H          0.50440       -2.09580        5.41300
H         -0.10800       -0.57890        4.63800
H          3.94250       -1.71560        3.87800
H          2.88110       -3.01820        4.49630
H          3.27430       -1.59210        5.49450
H          3.64210        1.34790        0.17250
H          1.41860        1.64670        1.54480
H          2.54770        1.79980        2.93620
H          2.72270        2.88750        1.54200
H          4.52150        0.04310        2.77320
H          5.00280        1.69130        2.27890
H          5.46890        0.33400        1.25350
H          3.41410       -2.76130       -0.50570
H          4.49890       -1.45030       -2.10210
H          4.95090       -0.17050       -0.92950
H          5.85390       -1.70650       -1.02820
H          5.17640       -3.46110        0.79080
H          4.14600       -2.65020        1.99670
H          5.60220       -1.83760        1.38740
H         -3.33020       -2.36980        2.51670
H         -1.98530       -3.44120        2.77010
H         -3.10890       -4.28340        4.84000
H         -3.72680       -3.23300        6.17140
H         -4.47530       -3.12650        4.53220
