108
mol30-B-2
C         -1.48490        4.99300        4.08450
S         -1.98840        3.67580        2.93440
C         -0.29530        3.07480        2.64780
Si        -0.26310        1.62150        1.45170
Si        -1.46070       -0.12340        2.31450
C         -3.11280        0.60530        2.85980
C         -3.91390       -0.30380        3.77920
C         -0.52440       -0.70220        3.85570
C         -0.91720       -2.06080        4.41800
Si        -1.80110       -1.64960        0.65400
C         -1.56710       -3.45940        1.14400
C         -2.70700       -4.00630        1.99730
C         -3.59110       -1.48940        0.07860
C         -3.93990       -2.40350       -1.09010
Si        -1.19380        2.34560       -0.48730
C         -0.44200        4.00930       -0.97080
C         -1.28390        4.76380       -1.99830
C         -3.05260        2.64590       -0.33720
C         -3.42260        3.66880        0.73160
Si        -0.87080        0.74500       -2.06790
C          0.49670        1.12780       -3.32070
C          0.25520        2.37360       -4.16360
C         -2.49710        0.62770       -3.01540
C         -2.41690       -0.27950       -4.23730
Si        -0.32160       -1.20270       -1.00250
Si         1.74480       -1.00730       -0.05710
C          3.05260       -1.18960       -1.40630
C          4.48000       -1.19460       -0.87450
C          2.03580       -2.32360        1.26000
C          2.15620       -3.73160        0.69050
Si         1.87670        0.99190        0.99100
C          2.90900        0.88890        2.57360
C          4.38720        0.62020        2.31970
C          2.72740        2.22310       -0.15250
C          2.94020        3.58660        0.49290
C         -0.34980       -2.69680       -2.15200
S          0.65170       -2.43490       -3.64830
C          0.29510       -4.07360       -4.35420
H         -0.97910        4.55380        4.96960
H         -0.80150        5.70400        3.57500
H         -2.38730        5.54220        4.42260
H          0.15560        2.76920        3.60980
H          0.30690        3.90080        2.22910
H         -2.91690        1.55760        3.39350
H         -3.72100        0.82050        1.96250
H         -3.42900       -0.36490        4.77500
H         -4.92850        0.12350        3.92270
H         -4.02190       -1.31500        3.33960
H         -0.68850        0.05440        4.64850
H          0.55110       -0.72580        3.62410
H         -0.40910       -2.20680        5.39440
H         -0.58010       -2.87300        3.75260
H         -2.00510       -2.13500        4.59210
H         -0.61150       -3.58780        1.67610
H         -1.50680       -4.06640        0.21790
H         -2.90470       -3.35330        2.86570
H         -3.63720       -4.09770        1.40140
H         -2.43610       -5.01640        2.36980
H         -3.79440       -0.44840       -0.21010
H         -4.25410       -1.73190        0.93370
H         -5.03500       -2.36760       -1.26870
H         -3.65370       -3.45440       -0.88460
H         -3.43630       -2.06140       -2.01190
H         -0.34990        4.63620       -0.06050
H          0.57120        3.85770       -1.37780
H         -0.68920        5.60060       -2.42100
H         -2.18940        5.19390       -1.52440
H         -1.60050        4.09800       -2.82660
H         -3.57080        1.69990       -0.12640
H         -3.42300        3.00620       -1.31860
H         -4.48130        3.97390        0.59610
H         -2.78590        4.57410        0.67060
H         -3.32870        3.22650        1.73910
H          1.46780        1.21660       -2.80940
H          0.57090        0.27000       -4.01290
H          0.48880        3.28550       -3.58630
H          0.93650        2.35830       -5.04030
H         -0.78740        2.41520       -4.53860
H         -2.77810        1.64780       -3.34960
H         -3.29380        0.27050       -2.33850
H         -3.41000       -0.31600       -4.73190
H         -2.13790       -1.30890       -3.94710
H         -1.67950        0.10850       -4.96930
H          2.87670       -2.15190       -1.92630
H          2.94300       -0.37110       -2.14240
H          4.61540       -1.97880       -0.10220
H          4.74500       -0.20750       -0.45310
H          5.17990       -1.40640       -1.70980
H          1.21120       -2.28380        1.99340
H          2.97140       -2.08570        1.80140
H          1.20840       -4.04850        0.22060
H          2.38290       -4.44050        1.51420
H          2.97470       -3.79130       -0.05510
H          2.82400        1.85600        3.10640
H          2.51990        0.09310        3.23190
H          4.53300       -0.38560        1.88350
H          4.93500        0.65400        3.28480
H          4.82490        1.38690        1.64910
H          3.71070        1.81940       -0.45860
H          2.12520        2.34070       -1.06350
H          3.54770        3.49970        1.41660
H          1.97100        4.05990        0.73300
H          3.47870        4.24790       -0.21780
H          0.04220       -3.57640       -1.61180
H         -1.39200       -2.91960       -2.44080
H          0.82730       -4.17390       -5.32210
H          0.64700       -4.87040       -3.66620
H         -0.79520       -4.18330       -4.53090
