108
mol30-A-0
C          2.24270        3.03850       -5.13050
S          1.15940        1.91820       -4.19140
C          2.01960        2.17240       -2.60840
Si         1.24880        1.17500       -1.20640
Si         1.69030       -1.03150       -1.50990
C          3.52620       -1.43010       -1.33210
C          4.40430       -0.73240       -2.36260
C          1.13640       -1.56020       -3.23660
C          1.60560       -2.95840       -3.61870
Si         0.57970       -2.19180        0.07960
C          1.70990       -3.52560        0.80350
C          1.88540       -4.72920       -0.11450
C         -0.92960       -3.02740       -0.68160
C         -1.75170       -3.80620        0.33710
Si         2.26760        1.86060        0.69750
C          1.74980        3.60570        1.20070
C          2.01300        4.65250        0.12500
C          4.13400        1.88070        0.43530
C          4.85920        2.78610        1.42890
Si         1.71980        0.45620        2.38340
C          3.09870       -0.76280        2.80980
C          4.27860       -0.15740        3.56300
C          1.35110        1.52640        3.89180
C          1.04130        0.71440        5.14470
Si        -0.06660       -0.78820        1.74460
Si        -1.70910        0.57990        0.94190
C         -2.06710        2.06650        2.05370
C         -2.52060        1.70420        3.45840
C         -3.31480       -0.37700        0.69060
C         -4.53680        0.53570        0.60940
Si        -1.01160        1.45330       -1.03830
C         -1.82820        0.60990       -2.52410
C         -3.30240        0.94510       -2.73190
C         -1.49890        3.27610       -1.02830
C         -1.23000        3.98160       -2.35280
C         -0.51270       -1.94460        3.17440
S         -2.11070       -1.55840        3.94940
C         -2.01400       -2.90340        5.17110
H          1.91520        3.05420       -6.19000
H          3.29280        2.68200       -5.08410
H          2.17590        4.06720       -4.71870
H          3.07670        1.87760       -2.72480
H          2.00330        3.24480       -2.35000
H          3.86620       -1.15770       -0.31970
H          3.65750       -2.52420       -1.44060
H          3.97560       -0.81420       -3.38260
H          5.40930       -1.20430       -2.36650
H          4.53880        0.33120       -2.09460
H          0.03390       -1.52640       -3.29910
H          1.55020       -0.84580       -3.97380
H          1.18010       -3.71660       -2.93550
H          1.25930       -3.19120       -4.64760
H          2.71270       -3.02280       -3.60580
H          1.29200       -3.87580        1.76770
H          2.70660       -3.09340        1.00270
H          0.91320       -5.22310       -0.31430
H          2.35330       -4.42850       -1.07090
H          2.55240       -5.46870        0.37620
H         -1.57010       -2.26320       -1.14840
H         -0.59940       -3.72020       -1.47920
H         -2.20540       -3.11820        1.07680
H         -1.12490       -4.55540        0.86340
H         -2.57340       -4.33990       -0.18470
H          2.30950        3.88200        2.11770
H          0.67920        3.61800        1.45550
H          1.93110        5.66600        0.57060
H          1.25540        4.57620       -0.67580
H          3.02480        4.54140       -0.31480
H          4.52170        0.84920        0.53120
H          4.34760        2.24000       -0.59180
H          5.94820        2.57240        1.39710
H          4.49340        2.62470        2.46380
H          4.71220        3.85290        1.16520
H          2.65960       -1.57260        3.42790
H          3.47880       -1.20960        1.87790
H          3.94980        0.49320        4.39660
H          4.89600       -0.97630        3.98830
H          4.92520        0.41550        2.87450
H          0.50110        2.19760        3.66820
H          2.23740        2.16530        4.08620
H          1.85250       -0.00780        5.36770
H          0.93690        1.40190        6.00990
H          0.08980        0.16400        5.03010
H         -1.16370        2.69030        2.12390
H         -2.85700        2.68010        1.57460
H         -1.69530        1.22380        4.01240
H         -2.80420        2.62920        4.00280
H         -3.39900        1.02970        3.43550
H         -3.23490       -0.96940       -0.24000
H         -3.46080       -1.08430        1.52880
H         -4.34990        1.40310       -0.05640
H         -4.80990        0.91490        1.61410
H         -5.40120       -0.03830        0.21420
H         -1.27890        0.90960       -3.43480
H         -1.73200       -0.48150       -2.41920
H         -3.58860        0.69420       -3.77510
H         -3.93850        0.33300       -2.06780
H         -3.51360        2.01960       -2.56820
H         -2.58310        3.34300       -0.80330
H         -0.95790        3.79660       -0.21600
H         -1.72060        3.45550       -3.19630
H         -0.14520        4.04720       -2.54910
H         -1.63170        5.01530       -2.30470
H          0.29440       -1.90450        3.93170
H         -0.55990       -2.98330        2.79980
H         -2.92840       -2.88820        5.79850
H         -1.12790       -2.76170        5.82440
H         -1.94830       -3.88410        4.65530
