144
mol3-B-2
C          5.47710       -0.54360        2.27970
S          4.23910       -1.60010        1.45580
C          2.98180       -0.28150        1.13880
C          1.51330       -0.10120        0.47300
C          1.64980       -0.64860       -1.23260
C          2.15600       -2.20840       -1.58910
C          3.34890       -3.08120       -1.00000
C          2.27130       -2.61310       -3.09850
C          2.97410        0.21490       -1.88160
C          3.17150        1.32230       -2.98980
C          4.39500       -0.45200       -1.94900
C          0.02290       -0.54060       -1.89730
C          0.12500        0.42350       -3.22950
C          1.06330        0.01050       -4.41140
C         -1.07180        1.02510       -4.05680
C         -0.70930       -1.95730       -2.61470
C         -1.56060       -1.86870       -3.94220
C         -0.41980       -3.53460       -2.60750
C          1.04610        1.62930        0.61610
C          1.33450        2.05740        2.23310
C          2.76740        2.50660        2.67000
C          0.51250        2.74940        3.37020
C          1.94920        2.81470       -0.12910
C          1.46080        4.26380        0.19390
C          3.50280        3.11070       -0.17410
C         -0.57400        1.76300       -0.07810
C         -0.85870        2.90690       -1.36020
C         -1.95400        4.02690       -1.23070
C          0.07720        3.69110       -2.39140
C         -1.59070        2.31040        1.10360
C         -3.13770        2.09950        1.16910
C         -1.52610        3.77670        1.67400
C         -1.03310        0.12420       -0.58520
C         -1.17490       -1.02470        0.81900
C         -2.45610       -0.70270        1.97250
C         -2.55300        0.09400        3.36670
C         -3.99330       -1.03290        1.67480
C         -1.72070       -2.56150        0.37080
C         -1.92570       -3.64480        1.48660
C         -3.01210       -2.92920       -0.49750
C          0.46500       -1.19310        1.49750
C          0.36050       -0.98340        3.19780
C         -0.31820       -2.13870        4.06550
C          1.51330       -0.60170        4.23850
C          1.26230       -2.70700        1.55870
C          2.44740       -2.94930        2.58350
C          0.85150       -4.19340        1.26680
C         -2.52210        0.17310       -1.22960
S         -3.69670        1.51890       -1.73370
C         -5.03540        0.42540       -2.31680
H          5.05350       -0.11290        3.21040
H          6.35850       -1.16250        2.54390
H          5.80380        0.26920        1.59850
H          3.59980        0.46120        0.73230
H          2.87220       -0.06440        2.15350
H          1.32330       -2.72970       -1.20030
H          4.21550       -3.16180       -1.69420
H          3.00120       -4.13340       -0.90240
H          3.80740       -2.86020       -0.03810
H          2.32020       -3.72140       -3.19500
H          3.18290       -2.26060       -3.59840
H          1.44760       -2.33650       -3.74230
H          3.10780        0.83470       -1.05490
H          3.61960        0.91500       -3.92310
H          3.93870        2.06000       -2.67270
H          2.36320        1.94610       -3.30180
H          5.19290        0.32300       -1.88260
H          4.60810       -0.94970       -2.90920
H          4.66240       -1.10810       -1.12760
H          0.56120        1.26190       -2.74930
H          0.62460       -0.69380       -5.13150
H          1.30550        0.90470       -5.02840
H          2.01250       -0.41860       -4.14930
H         -0.82500        2.05270       -4.37900
H         -2.04740        1.05610       -3.59950
H         -1.24830        0.52550       -5.03460
H         -1.48390       -2.01370       -1.96280
H         -2.29900       -1.07010       -4.03800
H         -2.27560       -2.71750       -4.02330
H         -0.95160       -1.98150       -4.85230
H          0.06120       -3.89500       -3.53820
H          0.01450       -4.06290       -1.75450
H         -1.37560       -4.09710       -2.66060
H          1.27360        1.11000        2.60830
H          3.57100        2.13450        2.08710
H          3.02150        2.15710        3.69340
H          2.87420        3.60820        2.71850
H          0.95220        2.49930        4.36350
H          0.59270        3.85460        3.35600
H         -0.48770        2.39540        3.57950
H          1.78480        2.57160       -1.15340
H          1.65910        4.56750        1.23430
H          1.95800        5.03080       -0.44130
H          0.42390        4.44410        0.00730
H          4.23310        2.34590       -0.39200
H          3.88620        3.71300        0.67380
H          3.69070        3.78170       -1.04290
H         -1.33250        2.26340       -2.04240
H         -1.55930        4.96460       -0.78890
H         -2.88270        3.77750       -0.76000
H         -2.33990        4.32720       -2.23180
H          0.94950        3.26240       -2.84020
H          0.36960        4.70990       -2.07570
H         -0.49910        3.92430       -3.31290
H         -1.22090        1.64220        1.84080
H         -3.79020        2.87740        0.74640
H         -3.49550        1.18120        0.78650
H         -3.48140        2.15670        2.21820
H         -2.23130        4.49310        1.21830
H         -1.89220        3.78560        2.72320
H         -0.57420        4.27180        1.70490
H         -2.29770       -1.58760        2.50100
H         -2.33340       -0.50850        4.26960
H         -2.00840        1.00960        3.53310
H         -3.58350        0.41550        3.61960
H         -4.67180       -0.19730        1.94260
H         -4.35850       -1.24660        0.67640
H         -4.36330       -1.86930        2.31160
H         -0.87910       -2.89190       -0.19940
H         -2.92410       -3.61790        1.97020
H         -1.83640       -4.67290        1.07060
H         -1.24800       -3.55010        2.30490
H         -2.80920       -3.88360       -1.02240
H         -3.91290       -3.20200        0.09080
H         -3.39550       -2.26710       -1.28310
H         -0.24210       -0.10450        3.28920
H          0.19130       -3.10540        3.98190
H         -0.29230       -1.90210        5.15370
H         -1.37530       -2.37940        4.01520
H          2.33500        0.08440        4.04010
H          1.98460       -1.48230        4.72510
H          1.02870       -0.07290        5.09130
H          1.79350       -2.59360        0.70600
H          3.00960       -2.09410        2.95000
H          2.15530       -3.55170        3.46350
H          3.24990       -3.55670        2.10940
H          0.28540       -4.41780        0.36370
H          0.45470       -4.71650        2.16080
H          1.75640       -4.80180        1.04050
H         -2.58660       -0.39240       -2.12320
H         -3.12570       -0.36350       -0.57000
H         -4.67330       -0.21970       -3.14390
H         -5.87210        1.04960       -2.69120
H         -5.40650       -0.20470       -1.48280
