72
mol34-E-2
C         -1.66770        5.42380       -2.50510
S         -0.41410        4.10500       -2.51850
C         -1.18750        3.15510       -1.17550
Si        -0.22110        1.59750       -0.77640
Si        -1.21350        0.43790        0.93830
C         -3.01570        0.02710        0.56980
F         -3.44890       -0.96860        1.42300
F         -3.17790       -0.39090       -0.72680
F         -3.79470        1.14990        0.77240
C         -1.38140        1.40190        2.54440
F         -1.72290        2.71100        2.26540
F         -2.37860        0.84010        3.31860
F         -0.21110        1.36310        3.26470
Si         0.01850       -1.43240        1.29870
C         -1.01970       -2.95960        0.92260
F         -0.19480       -4.04740        0.71720
F         -1.84830       -3.23550        1.99310
F         -1.81030       -2.75580       -0.18220
C          0.37660       -1.70790        3.12880
F          1.30610       -0.81980        3.60130
F         -0.78820       -1.56140        3.85690
F          0.86120       -2.98900        3.31100
Si        -0.01880        0.24500       -2.63060
C          0.43270        1.29580       -4.12720
F          1.52610        2.08300       -3.87610
F         -0.63540        2.11260       -4.44510
F          0.71210        0.48150       -5.20710
C         -1.57740       -0.61450       -3.25470
F         -1.36220       -1.08290       -4.53600
F         -1.89920       -1.68740       -2.46150
F         -2.63380        0.27060       -3.28790
Si         1.52440       -1.36060       -2.16820
C          0.95600       -3.09200       -2.64460
F          2.01360       -3.96980       -2.50380
F         -0.07530       -3.51800       -1.84880
F          0.53450       -3.10390       -3.95970
C          2.97610       -1.12370       -3.34890
F          4.05460       -1.88010       -2.94270
F          3.34050        0.19750       -3.42240
F          2.60980       -1.53430       -4.61580
Si         1.97070       -1.29390        0.09100
Si         3.09570        0.63760        0.61390
C          4.83280        0.66900       -0.11700
F          5.31710        1.96220       -0.10780
F          4.84170        0.19550       -1.40460
F          5.66930       -0.11960        0.64920
C          3.46750        0.85900        2.44420
F          4.51960        1.74120        2.59880
F          3.82500       -0.35650        2.99460
F          2.37920        1.37510        3.10700
Si         1.84130        2.37770       -0.12380
C          1.66890        3.73260        1.17520
F          0.82730        3.35730        2.18870
F          1.15980        4.87180        0.58150
F          2.90860        4.02230        1.71140
C          2.77770        3.31200       -1.46620
F          3.70420        4.15730       -0.88650
F          1.89660        4.07310       -2.20830
F          3.45400        2.44350       -2.28810
C          2.94560       -2.80170        0.63440
S          4.56560       -2.89070       -0.18520
C          5.06350       -4.43280        0.64260
H         -1.41150        6.17400       -3.28080
H         -1.68530        5.92340       -1.51410
H         -2.66870        5.00100       -2.73100
H         -2.21490        2.86240       -1.47400
H         -1.23710        3.78230       -0.26290
H          3.08960       -2.74810        1.73290
H          2.35830       -3.70890        0.38720
H          6.07720       -4.71870        0.29500
H          4.35380       -5.24790        0.38960
H          5.08940       -4.28440        1.74220
