144
mol3-E-2
C         -1.35990        5.14760        1.58800
S          0.18360        4.19250        1.72150
C         -0.43310        2.58970        0.98480
C          0.09730        1.10310        0.63170
C         -1.06570        0.10780       -0.32610
C         -2.64380        0.28800        0.23800
C         -3.80900       -0.49090       -0.46730
C         -3.44210        1.62240        0.49120
C         -1.39690        0.57250       -1.94880
C         -0.75210        0.25070       -3.35550
C         -2.31770        1.82080       -2.27000
C         -0.52400       -1.59620       -0.16090
C         -0.75540       -2.56570       -1.59210
C         -0.38060       -4.12370       -1.80390
C         -2.14780       -2.65700       -2.34220
C         -1.42280       -2.59400        0.85300
C         -2.96610       -2.66520        1.16500
C         -1.09840       -4.13740        0.97350
C          1.67400        1.25490       -0.23170
C          2.63620        2.27970        0.66850
C          4.15910        2.25200        1.05320
C          2.38570        3.83990        0.56880
C          1.69550        2.15350       -1.67210
C          2.90840        3.05640       -2.18260
C          0.52450        3.01570       -2.07320
C          2.22870       -0.41020       -0.49350
C          3.89180       -0.60060       -0.29800
C          4.83450        0.37120       -1.03020
C          4.77010       -1.91830       -0.48360
C          2.16850       -0.89300       -2.10680
C          3.02200       -0.21500       -3.25280
C          2.30890       -2.37420       -2.62330
C          1.17020       -1.43950        0.54540
C          1.14940       -1.00360        2.29930
C          0.61350       -2.35680        3.28270
C          1.58490       -3.09370        4.26880
C         -0.76140       -2.75730        4.00550
C          2.66650       -0.73890        2.95760
C          3.93410       -1.59060        2.65510
C          2.85330       -0.52060        4.51820
C          0.28470        0.53010        2.37240
C          0.92580        1.71780        3.50680
C          2.34980        2.36120        3.80110
C          0.01370        2.89570        4.02380
C         -1.14490        0.25920        3.27120
C         -0.97450       -0.05550        4.80660
C         -2.53470        1.03910        3.34130
C          1.84080       -2.86920        0.40050
S          2.47580       -4.22250        1.50930
C          3.01660       -5.37580        0.20310
H         -1.15110        6.20200        1.86070
H         -1.74580        5.12210        0.54860
H         -2.11210        4.74540        2.29620
H         -1.31970        2.46320        1.56660
H         -0.86890        2.93720        0.09680
H         -2.54690       -0.11710        1.19490
H         -4.65900       -0.66930        0.22850
H         -4.25860        0.02900       -1.33480
H         -3.51780       -1.42370       -0.86590
H         -4.22740        1.43560        1.25570
H         -4.06270        1.97490       -0.35850
H         -2.93880        2.49770        0.83130
H         -2.14470       -0.13260       -2.10360
H          0.07820        0.88470       -3.66490
H         -0.54230       -0.77820       -3.64480
H         -1.49750        0.46100       -4.15820
H         -1.94500        2.41250       -3.13410
H         -3.34770        1.54610       -2.58210
H         -2.37810        2.56650       -1.49040
H         -0.11950       -2.13570       -2.30220
H         -1.24490       -4.81290       -1.69410
H          0.41980       -4.68900       -1.31890
H         -0.09850       -4.26380       -2.87360
H         -2.64560       -1.82330       -2.83190
H         -2.04250       -3.24020       -3.28700
H         -2.88350       -3.24200       -1.75680
H         -1.10540       -2.15940        1.71030
H         -3.43530       -1.82260        1.68380
H         -3.56690       -3.09560        0.34340
H         -3.17810       -3.39560        1.97760
H         -1.33890       -4.51510        1.98290
H         -1.77560       -4.74110        0.33990
H         -0.09610       -4.52390        0.85680
H          2.22680        2.00200        1.56240
H          4.55260        1.37670        1.58000
H          4.35110        3.02340        1.83200
H          4.83740        2.60790        0.25880
H          3.22530        4.38640        0.09090
H          2.30050        4.31430        1.56090
H          1.49390        4.14610        0.03850
H          1.57810        1.43420       -2.42170
H          3.83570        3.10180       -1.61340
H          2.67530        4.14330       -2.20610
H          3.14360        2.85410       -3.24800
H          0.58810        4.09490       -1.83940
H         -0.25860        2.59850       -1.54560
H          0.33210        3.00080       -3.16920
H          4.01690       -0.31830        0.69590
H          5.71640        0.62830       -0.40180
H          4.30560        1.23700       -1.27890
H          5.28060       -0.00450       -1.97390
H          5.77820       -1.72540       -0.04980
H          4.55070       -2.87420        0.01040
H          4.97490       -2.15330       -1.54300
H          1.17300       -0.61350       -2.32100
H          2.40310       -0.14190       -4.17490
H          3.42040        0.77240       -3.10150
H          3.92540       -0.79490       -3.54500
H          3.34610       -2.73660       -2.69860
H          1.89770       -2.44290       -3.65660
H          1.79720       -3.16450       -2.12770
H          0.55540       -3.10010        2.52190
H          1.27080       -4.15160        4.42410
H          2.59800       -3.25240        3.93810
H          1.56360       -2.65060        5.28510
H         -0.74080       -2.60380        5.10460
H         -1.74960       -2.43770        3.65410
H         -0.88300       -3.86170        3.98220
H          2.91470        0.17680        2.45960
H          3.81540       -2.15500        1.77730
H          4.30210       -2.30710        3.41260
H          4.82430       -0.92870        2.56000
H          3.35440       -1.35970        5.04120
H          1.96530       -0.41730        5.13100
H          3.57740        0.28000        4.74790
H          0.96280        1.13700        4.39240
H          3.26140        1.88440        3.45440
H          2.51210        2.47140        4.90050
H          2.42500        3.40020        3.44320
H         -1.05790        2.80030        3.96310
H          0.25790        3.86130        3.54170
H          0.19590        3.07130        5.10900
H         -1.48810       -0.63110        2.85280
H         -0.94760        0.85980        5.43480
H         -0.07180       -0.60100        5.06470
H         -1.84740       -0.62700        5.19490
H         -2.68410        1.98990        2.84970
H         -2.82170        1.36380        4.36740
H         -3.38530        0.36200        3.10720
H          2.60300       -2.81470       -0.29950
H          1.15950       -3.36400       -0.14940
H          2.14020       -5.91040       -0.21260
H          3.55790       -4.84680       -0.60770
H          3.69970       -6.12530        0.65200
