180
mol33-E-2
C         -2.03270        5.66940       -1.22620
S         -0.92710        4.31290       -1.72680
C         -1.42670        3.20340       -0.38610
Si        -0.62310        1.48820       -0.27820
Si         1.76940        2.42890        0.08100
C          2.00560        4.02140       -1.20220
C          3.47620        4.39450       -1.54870
C          1.29840        3.72630       -2.52110
C          1.38070        5.35860       -0.70650
C          2.39690        3.42040        1.76430
C          1.44350        4.56070        2.26540
C          2.58690        2.39860        2.90280
C          3.77650        4.12050        1.55790
Si         3.15720        0.32960       -0.13020
C          4.51410       -0.18140        1.31410
C          5.48080       -1.31380        0.88550
C          5.45840        0.94680        1.81600
C          3.77900       -0.72280        2.53550
C          4.49690        0.60330       -1.65970
C          5.68430        1.52300       -1.23630
C          3.80420        1.30820       -2.84220
C          5.16950       -0.70400       -2.19340
Si        -1.08490        0.37840       -2.56140
C         -3.09690        0.47240       -2.94910
C         -3.69480       -0.55450       -3.95300
C         -3.87690        0.28590       -1.64490
C         -3.54520        1.84010       -3.53950
C         -0.42100        1.18650       -4.31150
C         -0.77150        2.69730       -4.50460
C         -1.01530        0.45370       -5.54580
C          1.10500        1.02520       -4.42030
Si         0.02350       -1.84820       -2.25910
C         -1.40230       -3.29210       -2.44800
C         -2.65400       -2.90150       -1.64390
C         -1.87370       -3.44760       -3.92000
C         -0.94800       -4.71670       -1.99370
C          1.31890       -2.54180       -3.69100
C          1.56830       -4.07550       -3.60820
C          0.93480       -2.33170       -5.18350
C          2.68270       -1.87070       -3.51050
Si         1.31940       -1.47960       -0.05380
Si        -0.07220       -1.57880        2.13990
C         -0.71780       -3.52450        2.35360
C         -1.05520       -4.10770        0.98490
C         -1.97400       -3.72530        3.25180
C          0.33970       -4.50030        2.95130
C          0.68740       -1.40980        4.04640
C          1.02140        0.06630        4.34190
C         -0.34410       -1.84750        5.13560
C          1.96340       -2.27440        4.33360
Si        -1.69050        0.32630        1.76600
C         -1.93150        1.78070        3.18450
C         -2.06680        1.28910        4.65280
C         -3.18000        2.67390        2.96830
C         -0.74610        2.73970        3.13490
C         -3.59550       -0.43130        1.85440
C         -4.03540       -0.73040        3.32180
C         -4.70880        0.50550        1.28060
C         -3.66030       -1.77470        1.10300
C          2.21630       -3.11790        0.28030
S          3.45340       -3.69310       -0.91050
C          3.85720       -5.21280        0.00650
H         -3.08940        5.33060       -1.25360
H         -1.77460        6.01470       -0.20330
H         -1.90860        6.51530       -1.93250
H         -2.51480        3.06130       -0.46590
H         -1.19270        3.73450        0.54310
H          3.94080        5.11800       -0.86040
H          3.56550        4.91710       -2.52590
H          4.10480        3.51980       -1.58650
H          0.51080        4.46660       -2.77510
H          1.97710        3.76820       -3.39420
H          0.83400        2.73800       -2.45250
H          1.97050        5.84970        0.07730
H          1.37990        6.11600       -1.52270
H          0.33390        5.25680       -0.38310
H          0.51360        4.58760        1.68990
H          1.86100        5.58550        2.21040
H          1.20270        4.50510        3.34450
H          3.59300        2.37620        3.36200
H          2.37760        1.40690        2.50620
H          1.94760        2.57130        3.78020
H          4.37320        4.18510        2.49300
H          3.70740        5.17740        1.24880
H          4.37740        3.62380        0.79470
H          4.93980       -2.20070        0.55180
H          6.11100       -1.63960        1.74390
H          6.21380       -1.00340        0.13190
H          5.80690        0.77890        2.85870
H          6.40960        1.03190        1.26640
H          4.96960        1.90270        1.78560
H          2.70970       -0.80120        2.32310
H          3.91130       -0.08720        3.43010
H          4.14970       -1.72060        2.85140
H          6.54570        0.97190       -0.82450
H          5.39110        2.26180       -0.48750
H          6.14020        2.06370       -2.09290
H          2.84660        1.69360       -2.50150
H          3.63990        0.66320       -3.71160
H          4.37000        2.15070       -3.28920
H          6.26440       -0.76960       -2.03080
H          5.11010       -0.82520       -3.29280
H          4.74020       -1.58300       -1.71180
H         -3.28380       -0.54150       -4.96450
H         -3.65550       -1.57030       -3.59390
H         -4.78300       -0.36120       -4.08920
H         -4.60880        1.09340       -1.44440
H         -3.18010        0.23670       -0.80020
H         -4.50170       -0.62900       -1.65390
H         -3.04560        2.69250       -3.07470
H         -4.63860        2.00600       -3.41950
H         -3.41530        1.89460       -4.63140
H         -1.04860        3.16800       -3.55290
H          0.05480        3.27990       -4.96280
H         -1.60510        2.89270       -5.20460
H         -1.12930       -0.62060       -5.35350
H         -0.39420        0.58140       -6.45850
H         -1.98960        0.85250       -5.87050
H          1.44190        0.35140       -3.63250
H          1.48140        0.68790       -5.40400
H          1.65960        1.95880       -4.36110
H         -3.62040       -3.04830       -2.16050
H         -2.84840       -3.53640       -0.78240
H         -2.55000       -1.86650       -1.31740
H         -1.88640       -2.47980       -4.43710
H         -1.26010       -4.14690       -4.51020
H         -2.88560       -3.90010       -3.99890
H         -0.71720       -5.41400       -2.82050
H         -1.73640       -5.26920       -1.44130
H         -0.04780       -4.66770       -1.36810
H          2.50150       -4.37300       -4.13570
H          0.80000       -4.66060       -4.13710
H          1.65750       -4.44210       -2.58380
H          1.71110       -2.78350       -5.84180
H         -0.00280       -2.78460       -5.51260
H          0.92050       -1.29410       -5.47480
H          3.52340       -2.58710       -3.42150
H          2.66960       -1.24300       -2.61180
H          2.96700       -1.25010       -4.38340
H         -0.46120       -5.01090        0.73190
H         -0.86790       -3.34390        0.22450
H         -2.09900       -4.46690        0.91190
H         -1.75580       -3.89440        4.31780
H         -2.64730       -2.88680        3.17810
H         -2.54710       -4.64160        2.99150
H         -0.00520       -5.55500        2.85910
H          0.47800       -4.38670        4.03290
H          1.31500       -4.45100        2.44510
H          0.63030        0.67000        3.52950
H          0.61150        0.47180        5.28820
H          2.09130        0.27320        4.46000
H         -0.20710       -1.32050        6.10380
H         -1.37510       -1.69900        4.81080
H         -0.26190       -2.90390        5.43940
H          1.83090       -3.07500        5.08800
H          2.32230       -2.77360        3.42740
H          2.79730       -1.70520        4.78880
H         -3.10340        1.11390        4.98490
H         -1.70650        2.03610        5.39290
H         -1.51350        0.38030        4.80600
H         -3.18460        3.52140        3.69080
H         -4.12940        2.16350        3.16520
H         -3.18790        3.12260        1.97280
H         -0.06500        2.44450        2.33280
H         -0.17280        2.76760        4.08070
H         -1.05290        3.79300        2.96480
H         -4.79920       -1.53410        3.39030
H         -4.54280        0.11430        3.81530
H         -3.19320       -1.00890        3.95770
H         -5.36920        0.01810        0.53680
H         -5.45000        0.86270        2.02400
H         -4.27060        1.39970        0.83660
H         -4.20470       -1.72810        0.15430
H         -4.19590       -2.58890        1.63240
H         -2.64490       -2.11310        0.91370
H          1.45570       -3.90440        0.31260
H          2.71020       -3.03860        1.26140
H          4.63760       -5.77240       -0.54830
H          2.95530       -5.85290        0.10140
H          4.24590       -4.95840        1.01460
