144
mol31-B-1
C         -2.60740       -3.85970        5.14780
S         -1.92690       -2.26080        4.60600
C         -1.60610       -2.79400        2.89040
Si        -0.83740       -1.51230        1.68310
Si         1.47690       -1.18810        2.11770
C          1.84640       -1.19550        4.03040
C          3.30230       -0.89340        4.40260
C          1.43910       -2.46780        4.77500
C          2.54420       -2.56470        1.30300
C          3.98770       -2.66050        1.80760
C          1.92880       -3.95400        1.34160
Si         2.14460        0.80360        1.01330
C          2.27020        2.38950        2.12840
C          2.67170        2.21690        3.59160
C          3.12950        3.52690        1.55180
C          3.89580        0.51660        0.18740
C          4.13170        1.23640       -1.14230
C          5.10690        0.80750        1.09090
Si        -1.31940       -2.22780       -0.53520
C         -0.85570       -4.06600       -0.97390
C         -1.33120       -5.13960        0.02320
C         -1.28370       -4.47800       -2.38780
C         -3.26570       -2.21680       -0.80240
C         -3.73290       -2.11210       -2.27200
C         -4.01650       -3.40980       -0.18290
Si        -0.03390       -0.71470       -1.86450
C          1.72630       -1.33990       -2.42560
C          2.25230       -0.69800       -3.72260
C          1.94520       -2.85290       -2.53990
C         -1.03660       -0.30280       -3.47040
C         -0.76950       -1.20620       -4.68530
C         -0.99070        1.15420       -3.90160
Si         0.42770        1.23810       -0.57630
Si        -1.43470        2.14490        0.55520
C         -3.01780        2.44530       -0.51840
C         -3.00620        3.69790       -1.41230
C         -3.44620        1.22510       -1.32830
C         -1.08870        3.85480        1.43560
C         -0.03290        4.73480        0.76380
C         -2.32930        4.72890        1.72750
Si        -1.96060        0.52780        2.17930
C         -3.88990        0.32130        2.20910
C         -4.64040        1.45270        2.91330
C         -4.37680       -1.00580        2.78640
C         -1.34460        1.16540        3.90480
C         -1.48100        0.14130        5.02990
C         -1.96790        2.48180        4.40400
C          1.19070        2.52480       -1.76600
S          0.11780        3.87150       -2.35140
C          1.39950        4.66510       -3.37120
H         -1.84430       -4.65760        5.03430
H         -3.50880       -4.11250        4.55160
H         -2.89340       -3.78640        6.21690
H         -0.93660       -3.64690        2.96630
H         -2.53750       -3.20260        2.48290
H          1.23150       -0.39110        4.45620
H          3.34040       -0.34190        5.36650
H          3.77910       -0.28350        3.63940
H          3.90830       -1.81370        4.52740
H          1.79470       -2.43040        5.82800
H          0.34710       -2.55310        4.84570
H          1.87920       -3.36570        4.30380
H          2.58750       -2.26890        0.24860
H          4.44750       -1.66880        1.93050
H          4.60150       -3.22470        1.07320
H          4.03810       -3.20380        2.77280
H          2.04080       -4.42900        2.33520
H          2.41990       -4.61140        0.59270
H          0.86870       -3.88260        1.09100
H          1.23870        2.73860        2.16300
H          3.72820        1.90680        3.69350
H          2.57120        3.18920        4.12110
H          1.99630        1.53410        4.11220
H          3.04600        3.62090        0.46430
H          4.19810        3.40190        1.80960
H          2.80580        4.49490        1.99100
H          3.94350       -0.55740       -0.05390
H          5.09520        0.90120       -1.58380
H          4.19230        2.33350       -1.01030
H          3.35560        0.98680       -1.87260
H          5.94120        0.12230        0.82670
H          5.49080        1.83840        0.95670
H          4.88750        0.66990        2.15270
H          0.23250       -4.11770       -0.96680
H         -2.03840       -5.86680       -0.43030
H         -1.84640       -4.69480        0.87800
H         -0.46950       -5.73010        0.40150
H         -0.74520       -5.40180       -2.69040
H         -1.04840       -3.69570       -3.11780
H         -2.37060       -4.68300       -2.44720
H         -3.63760       -1.33320       -0.26040
H         -2.96120       -2.45290       -2.98180
H         -4.04500       -1.08120       -2.51790
H         -4.63580       -2.72670       -2.48010
H         -3.74070       -3.60840        0.85390
H         -3.86810       -4.33660       -0.76920
H         -5.10750       -3.19650       -0.17420
H          2.38880       -1.00520       -1.61730
H          3.36290       -0.66530       -3.69820
H          1.89320        0.32530       -3.87390
H          1.97210       -1.29430       -4.61430
H          2.05170       -3.31940       -1.55290
H          1.15420       -3.34060       -3.13080
H          2.91100       -3.06880       -3.04670
H         -2.07750       -0.45220       -3.19500
H         -0.30690       -2.16180       -4.40550
H         -0.09890       -0.71380       -5.42080
H         -1.72420       -1.42540       -5.21000
H         -1.30680        1.77560       -3.05610
H         -1.71220        1.33100       -4.72830
H          0.01220        1.45540       -4.25500
H         -3.81810        2.62060        0.22670
H         -2.61670        3.49000       -2.42600
H         -4.04500        4.07110       -1.53880
H         -2.40480        4.51430       -0.99130
H         -3.54490        1.43270       -2.41400
H         -4.44280        0.86530       -0.99950
H         -2.70410        0.42640       -1.20220
H         -0.67250        3.58540        2.41820
H          0.79990        4.13160        0.38590
H         -0.45380        5.32150       -0.07570
H          0.37570        5.45830        1.50140
H         -3.25150        4.13940        1.81450
H         -2.50960        5.50150        0.95360
H         -2.18080        5.27640        2.68320
H         -4.22110        0.34360        1.15970
H         -5.73450        1.34070        2.75320
H         -4.45730        1.43080        4.00570
H         -4.37080        2.43020        2.49290
H         -3.89500       -1.23630        3.75350
H         -4.19970       -1.80330        2.05720
H         -5.47650       -0.99450        2.94650
H         -0.26480        1.35200        3.75110
H         -0.88270       -0.74330        4.82050
H         -2.53980       -0.14340        5.18760
H         -1.08700        0.56170        5.98060
H         -2.51420        3.00080        3.61610
H         -2.69350        2.32640        5.23160
H         -1.17330        3.15640        4.78910
H          1.57900        2.01380       -2.65100
H          2.04270        2.99810       -1.27390
H          0.96790        5.56270       -3.85930
H          2.25390        4.97800       -2.73550
H          1.75120        3.96370       -4.15630
