144
mol31-B-0
C         -1.97990       -4.92710        4.43910
S         -0.74860       -4.26010        3.27620
C         -1.65760       -2.71210        2.94770
Si        -0.87380       -1.45580        1.72360
Si         1.44650       -1.16140        2.14730
C          1.82210       -1.15290        4.05870
C          3.28370       -0.86850        4.42290
C          1.39840       -2.41060        4.81890
C          2.49040       -2.56290        1.34470
C          3.93390       -2.67470        1.84580
C          1.85440       -3.94230        1.40090
Si         2.14020        0.80760        1.01840
C          2.29310        2.40380        2.11520
C          2.69690        2.24160        3.57890
C          3.16750        3.52170        1.52310
C          3.88410        0.48510        0.19030
C          4.12630        1.18640       -1.14820
C          5.10250        0.76800        1.08660
Si        -1.37390       -2.18870       -0.48490
C         -0.93920       -4.03850       -0.90440
C         -1.42730       -5.09360        0.10630
C         -1.37800       -4.45990       -2.31220
C         -3.32060       -2.15160       -0.74610
C         -3.79110       -2.05630       -2.21530
C         -4.08710       -3.32620       -0.11080
Si        -0.07030       -0.71010       -1.83520
C          1.67840       -1.36780       -2.39490
C          2.20970       -0.74840       -3.70060
C          1.87430       -2.88510       -2.49280
C         -1.07210       -0.30120       -3.44250
C         -0.82260       -1.22200       -4.64800
C         -1.00590        1.15000       -3.89010
Si         0.42470        1.24990       -0.57060
Si        -1.42020        2.19710        0.55660
C         -3.00220        2.50910       -0.51530
C         -2.97490        3.75140       -1.42330
C         -3.45150        1.28650       -1.31010
C         -1.04570        3.91140        1.41660
C          0.02090        4.76790        0.73160
C         -2.27210        4.80720        1.70250
Si        -1.96480        0.60640        2.20040
C         -3.89680        0.42910        2.23870
C         -4.62800        1.57950        2.93250
C         -4.40160       -0.88390        2.83240
C         -1.33360        1.25400        3.91670
C         -1.48160        0.24470        5.05360
C         -1.93550        2.58510        4.40300
C          1.20280        2.51160       -1.77710
S          0.14820        3.86760       -2.37420
C          1.43830        4.63050       -3.40690
H         -2.95830       -5.05100        3.92980
H         -2.09110       -4.24670        5.30890
H         -1.63570       -5.91770        4.80020
H         -2.62790       -3.01520        2.56280
H         -1.87320       -2.23510        3.91020
H          1.22080       -0.33460        4.47740
H          3.33320       -0.30690        5.38040
H          3.76700       -0.27440        3.65130
H          3.87630       -1.79630        4.55610
H          1.75800       -2.36670        5.87020
H          0.30550       -2.47870        4.89400
H          1.82350       -3.32020        4.35640
H          2.53460       -2.27960        0.28690
H          4.40900       -1.68860        1.95610
H          4.53680       -3.25620        1.11590
H          3.97940       -3.20780        2.81680
H          1.96260       -4.40770        2.39940
H          2.33310       -4.61530        0.65790
H          0.79460       -3.85780        1.15280
H          1.26710        2.76860        2.14910
H          3.74900        1.91690        3.68100
H          2.61270        3.22120        4.09780
H          2.01320        1.57490        4.10940
H          3.08170        3.60480        0.43490
H          4.23500        3.38360        1.77890
H          2.85980        4.49930        1.95240
H          3.91500       -0.59210       -0.03910
H          5.08320        0.83190       -1.58900
H          4.20370        2.28380       -1.02870
H          3.34420        0.94030       -1.87320
H          5.92550        0.06740        0.82750
H          5.50130        1.79140        0.93960
H          4.88460        0.64560        2.15060
H          0.14820       -4.10640       -0.90010
H         -2.14680       -5.81520       -0.33680
H         -1.93300       -4.63160        0.95760
H         -0.57330       -5.69270        0.48840
H         -0.85440       -5.39500       -2.60610
H         -1.13340       -3.68940       -3.05160
H         -2.46810       -4.64920       -2.36590
H         -3.67750       -1.25650       -0.21290
H         -3.02700       -2.41660       -2.92360
H         -4.08860       -1.02370       -2.47170
H         -4.70390       -2.65960       -2.41360
H         -3.81090       -3.51720        0.92730
H         -3.95460       -4.26160       -0.68710
H         -5.17480       -3.09650       -0.10100
H          2.34850       -1.03400       -1.59250
H          3.32070       -0.73210       -3.68010
H          1.86540        0.27840       -3.86230
H          1.91760       -1.35040       -4.58470
H          1.97720       -3.34210       -1.50090
H          1.07420       -3.36750       -3.07570
H          2.83510       -3.12110       -3.00020
H         -2.11420       -0.43190       -3.16220
H         -0.37340       -2.18130       -4.35890
H         -0.14720       -0.74810       -5.39110
H         -1.78220       -1.43280       -5.16710
H         -1.30980        1.78560       -3.05070
H         -1.72740        1.32830       -4.71650
H          0.00020        1.43220       -4.25010
H         -3.79730        2.70470        0.23030
H         -2.59190        3.52630       -2.43580
H         -4.00840        4.13870       -1.55060
H         -2.35990        4.56330       -1.01340
H         -3.55070        1.48340       -2.39770
H         -4.45220        0.94540       -0.97410
H         -2.72090        0.47820       -1.17730
H         -0.63030        3.64680        2.40080
H          0.84330        4.14820        0.35790
H         -0.39400        5.35140       -0.11310
H          0.44270        5.49350        1.45970
H         -3.20270        4.23260        1.79910
H         -2.44350        5.57370        0.92060
H         -2.11230        5.36310        2.65150
H         -4.23120        0.44470        1.19010
H         -5.72420        1.48210        2.77710
H         -4.44160        1.56710        4.02440
H         -4.34520        2.54810        2.50030
H         -3.92010       -1.11080        3.80050
H         -4.23890       -1.69220        2.11170
H         -5.50040       -0.85440        2.99590
H         -0.25160        1.42260        3.75750
H         -0.89720       -0.65110        4.85230
H         -2.54390       -0.02230        5.21790
H         -1.07810        0.66980        5.99830
H         -2.47660        3.10340        3.61100
H         -2.66060        2.44980        5.23460
H         -1.12960        3.25200        4.77800
H          1.58050        1.98500       -2.65740
H          2.06350        2.97760       -1.29300
H          1.01850        5.52890       -3.90360
H          2.29930        4.93760       -2.77740
H          1.77680        3.91510       -4.18520
