60
mol37-A-2
C         -0.81160        5.81380        0.79320
S         -0.11160        4.30340        1.52750
C         -0.45210        3.26480        0.07100
Si         0.12900        1.51460        0.37290
Si         2.34550        1.41490        0.60560
C          3.12310        1.58910       -1.02390
C          3.63350        1.69920       -2.10940
C          2.90080        2.74590        1.70480
C          3.26410        3.62910        2.43890
Si         2.88650       -0.56780        1.47840
C          3.13230       -0.39980        3.26750
C          3.28740       -0.28670        4.45680
C          4.40580       -1.18080        0.70080
C          5.41150       -1.58930        0.17820
Si        -0.46640        0.14030       -1.28460
C         -0.01580        0.84840       -2.89240
C          0.28960        1.31750       -3.95920
C         -2.25880       -0.12540       -1.20900
C         -3.44860       -0.30420       -1.15060
Si         0.59210       -1.81110       -1.02410
C         -0.53000       -3.15960       -1.48440
C         -1.28010       -4.05250       -1.78680
C          2.06620       -1.84880       -2.07980
C          3.04890       -1.86770       -2.77630
Si         1.22740       -2.01190        1.10810
Si        -0.49090       -1.43730        2.40970
C         -1.98390       -2.29340        1.83660
C         -2.97310       -2.86000        1.44750
C         -0.13180       -1.89630        4.12690
C          0.11340       -2.19930        5.26670
Si        -0.79710        0.76950        2.26050
C         -0.00450        1.59170        3.66940
C          0.52960        2.13560        4.60230
C         -2.57280        1.13810        2.24880
C         -3.75270        1.38040        2.23440
C          1.83620       -3.73560        1.49560
S          0.46790       -4.93110        1.37320
C          1.49420       -6.36870        1.80960
H         -1.88440        5.65980        0.55400
H         -0.72190        6.64520        1.52190
H         -0.25540        6.08260       -0.12900
H          0.07930        3.66670       -0.81660
H         -1.54380        3.24330       -0.12800
H          4.07980        1.79370       -3.06400
H          3.58210        4.40460        3.08480
H          3.42050       -0.18680        5.50160
H          6.29390       -1.94830       -0.28230
H          0.55940        1.73030       -4.89530
H         -4.49350       -0.46200       -1.09630
H         -1.93960       -4.83690       -2.05050
H          3.91330       -1.88200       -3.38630
H         -3.84140       -3.35690        1.10290
H          0.33020       -2.46480        6.26770
H          1.00140        2.61260        5.42030
H         -4.78920        1.59240        2.22030
H          2.63790       -3.99880        0.77480
H          2.24750       -3.73970        2.52630
H          0.86130       -7.27950        1.80560
H          2.30980       -6.49460        1.06720
H          1.92600       -6.23550        2.82340
