72
mol35-D-2
C          5.67840       -1.60960       -4.17390
S          4.79330       -0.20790       -3.42380
C          3.47830       -1.23250       -2.69960
Si         2.17000       -0.27170       -1.73040
Si         3.05580        0.74090        0.37640
C          4.87320        1.46860       -0.04490
Cl         5.98030        1.80260        1.31080
Cl         4.93840        2.99700       -0.85470
Cl         5.79330        0.35660       -1.07090
C          3.65650       -0.24700        1.99320
Cl         5.08690       -1.25650        1.64990
Cl         4.03740        0.86430        3.33210
Cl         2.59570       -1.31930        2.86050
Si         1.28720        2.23820        1.07130
C          0.55850        2.12810        2.93320
Cl        -1.05690        2.84560        3.03920
Cl         1.46300        2.93510        4.23940
Cl         0.40250        0.54820        3.62300
C          2.10530        4.03090        1.33190
Cl         2.82680        4.91060        0.01550
Cl         0.93750        5.18940        2.02280
Cl         3.53580        3.94700        2.38990
Si         0.43490       -1.96840       -1.40330
C         -0.29750       -2.98280       -2.93000
Cl        -1.15880       -4.46600       -2.44720
Cl        -1.52280       -2.13680       -3.85240
Cl         0.95220       -3.56140       -4.06640
C          1.14020       -3.55500       -0.45350
Cl         1.93500       -4.76600       -1.49110
Cl        -0.10120       -4.47370        0.43630
Cl         2.41870       -3.20160        0.66240
Si        -1.27960       -0.68280       -0.33170
C         -3.10520       -0.93800       -1.01030
Cl        -4.34830       -0.29540        0.09390
Cl        -3.45360       -0.12090       -2.48690
Cl        -3.53190       -2.63210       -1.35170
C         -1.64640       -1.37700        1.46680
Cl        -2.74950       -2.77310        1.54790
Cl        -0.23530       -2.01820        2.24930
Cl        -2.39040       -0.16640        2.53170
Si        -0.59210        1.68280       -0.48070
Si        -0.33100        2.54360       -2.75840
C         -0.34490        4.52240       -2.79340
Cl         0.30070        5.26020       -1.36360
Cl         0.51570        5.22510       -4.18710
Cl        -1.96300        5.26630       -2.84510
C         -1.76470        2.32940       -4.09790
Cl        -1.59600        3.41990       -5.49680
Cl        -1.81920        0.75760       -4.86880
Cl        -3.39330        2.69310       -3.46290
Si         1.66510        1.41770       -3.45740
C          3.08590        2.70960       -3.86120
Cl         3.03070        4.11990       -2.84980
Cl         4.70980        1.99810       -3.76190
Cl         3.02550        3.44590       -5.48200
C          1.62370        0.61390       -5.24910
Cl         0.85320        1.62910       -6.49200
Cl         0.77520       -0.88190       -5.35640
Cl         3.24590        0.18650       -5.85170
C         -2.23820        2.45210        0.04140
S         -2.17710        4.24210        0.35040
C         -3.93860        4.37860        0.78510
H          5.01650       -2.13980       -4.89010
H          6.01820       -2.31180       -3.38430
H          6.56490       -1.22670       -4.71930
H          2.99600       -1.80400       -3.50650
H          3.93450       -1.96500       -2.00980
H         -2.97020        2.25250       -0.76160
H         -2.60870        1.95310        0.94910
H         -4.16680        3.73550        1.66050
H         -4.16590        5.43280        1.04420
H         -4.56820        4.07720       -0.07800
