144
mol31-D-1
C         -5.91200        1.75580       -0.09520
S         -4.69470        0.40330       -0.05260
C         -3.23980        1.49640        0.00020
Si        -1.51550        0.66540        0.06130
Si        -0.04460        1.76450       -1.41010
C         -0.21890        3.70190       -1.60290
C         -0.69480        4.22240       -2.96630
C         -1.05240        4.38000       -0.50320
C         -0.33210        0.97260       -3.15690
C         -1.74450        1.10990       -3.72670
C          0.68260        1.34200       -4.25860
Si         2.09060        1.21960       -0.56660
C          3.29400        1.28790       -2.07480
C          3.61440        2.71950       -2.51560
C          4.59630        0.50550       -1.96270
C          2.66200        2.43810        0.82850
C          2.46810        3.93180        0.54970
C          4.09310        2.22310        1.31440
Si        -0.87090        0.82870        2.35240
C         -0.51130        2.71870        2.71810
C          0.40720        3.02380        3.90260
C         -1.74210        3.62770        2.89610
C         -2.30960        0.31110        3.55910
C         -3.71450        0.81610        3.21820
C         -2.03460        0.64390        5.02950
Si         0.98950       -0.67850        2.61120
C          2.32380       -0.04770        3.88760
C          3.61670       -0.86840        3.99970
C          1.78260        0.12790        5.30870
C          0.49070       -2.47560        3.17380
C         -0.59970       -2.58580        4.25640
C          1.66670       -3.34710        3.63050
Si         1.92980       -0.89990        0.44570
Si         0.63340       -2.35750       -0.89270
C          1.35200       -2.23960       -2.71300
C          0.38190       -2.68740       -3.81290
C          2.68120       -2.96550       -2.97990
C          0.81010       -4.22560       -0.35270
C          2.20620       -4.70200        0.06440
C          0.24730       -5.22610       -1.36940
Si        -1.63790       -1.61740       -0.58330
C         -2.49360       -2.53040        0.89560
C         -2.31770       -4.06000        0.96920
C         -3.98360       -2.21900        1.06400
C         -2.78130       -1.87430       -2.14430
C         -4.17150       -1.22460       -2.10060
C         -2.96620       -3.33920       -2.54200
C          3.61560       -1.81120        0.52790
S          5.13440       -0.86460        0.87230
C          6.24480       -2.30540        0.79790
H         -5.75790        2.37970       -1.00020
H         -5.81750        2.38330        0.81550
H         -6.93220        1.32220       -0.12810
H         -3.28960        2.11060       -0.89610
H         -3.37430        2.19350        0.83150
H          0.81240        4.08170       -1.53190
H         -0.55380        5.32440       -3.00600
H         -1.77470        4.03520       -3.11550
H         -0.11180        3.80890       -3.80410
H         -0.47780        5.18010        0.00590
H         -1.38510        3.64110        0.22760
H         -1.96910        4.86780       -0.89770
H         -0.23350       -0.09180       -2.93980
H         -1.95610        2.12080       -4.11230
H         -1.87150        0.40770       -4.57900
H         -2.48590        0.83670       -2.97460
H          1.35940        2.15000       -3.94290
H          1.27640        0.45270       -4.55480
H          0.18980        1.70210       -5.18770
H          2.76200        0.78760       -2.89100
H          2.70390        3.34440       -2.55930
H          4.06080        2.70990       -3.53310
H          4.34760        3.18740       -1.82630
H          4.38620       -0.55340       -1.75850
H          5.13590        0.53350       -2.93400
H          5.27180        0.93550       -1.20260
H          2.01790        2.18430        1.67920
H          2.93710        4.25060       -0.39630
H          1.40620        4.18360        0.55400
H          2.90200        4.54910        1.36510
H          4.81730        2.27610        0.48210
H          4.15840        1.27320        1.85760
H          4.38220        2.99190        2.06240
H          0.00790        3.07110        1.82000
H          0.61160        4.11540        3.95280
H         -0.06640        2.73670        4.86050
H          1.38800        2.56070        3.79350
H         -1.42540        4.69250        2.85580
H         -2.49180        3.51810        2.11040
H         -2.23010        3.47400        3.87690
H         -2.38960       -0.77620        3.48700
H         -4.05940        0.39750        2.26740
H         -3.77810        1.91690        3.19650
H         -4.44230        0.45930        3.97880
H         -1.02830        0.34290        5.33040
H         -2.74490        0.09060        5.68090
H         -2.15970        1.72240        5.23850
H          2.65010        0.93280        3.51720
H          4.47430       -0.19500        4.21500
H          3.83760       -1.40420        3.08400
H          3.58090       -1.61350        4.82050
H          1.39220       -0.82920        5.70780
H          2.59020        0.48040        5.98660
H          1.00480        0.89100        5.34930
H          0.10260       -2.93870        2.25710
H         -0.56970       -1.73380        4.94800
H         -1.60250       -2.71250        3.81710
H         -0.47640       -3.49860        4.87970
H          1.93770       -3.12620        4.68300
H          2.55210       -3.22380        3.00500
H          1.37870       -4.41940        3.57750
H          1.58620       -1.17630       -2.87100
H          0.82980       -2.51950       -4.81590
H         -0.53580       -2.10180       -3.81440
H          0.14170       -3.76330       -3.72900
H          2.97060       -2.85340       -4.04710
H          3.51890       -2.52120       -2.43650
H          2.61560       -4.04880       -2.78340
H          0.21110       -4.33520        0.55430
H          2.25180       -5.81180        0.10490
H          2.99710       -4.37150       -0.62660
H          2.42190       -4.38070        1.09230
H         -0.73840       -4.92260       -1.72970
H          0.11640       -6.21920       -0.88800
H          0.92250       -5.36240       -2.23460
H         -1.98350       -2.09030        1.75940
H         -2.02370       -4.48270        0.00020
H         -1.58890       -4.33780        1.75390
H         -3.25110       -4.58590        1.26640
H         -4.22320       -1.19510        0.77760
H         -4.60870       -2.90230        0.45200
H         -4.27680       -2.35570        2.12720
H         -2.27880       -1.38070       -2.97940
H         -4.86210       -1.73670       -1.41020
H         -4.11860       -0.16050       -1.86270
H         -4.63610       -1.27670       -3.10910
H         -2.02120       -3.76050       -2.90370
H         -3.38030       -3.93470       -1.70570
H         -3.67060       -3.42670       -3.39720
H          3.77880       -2.31560       -0.41890
H          3.56740       -2.60440        1.27170
H          5.95950       -3.04790        1.57210
H          7.28460       -1.96990        0.98850
H          6.19720       -2.77250       -0.20770
