84
mol36-C-0
C          5.23400       -4.09570       -1.70620
S          3.77930       -3.65650       -0.70570
C          3.27470       -2.27950       -1.78350
Si         1.72550       -1.45830       -1.12930
Si         1.04770        0.06450       -2.62930
C          2.47640        1.11990       -3.14920
C          3.49970        0.61250       -3.83610
C          0.38540       -0.82430       -4.10940
C          0.09580       -0.18020       -5.23920
Si        -0.54590        1.34450       -1.69570
C         -1.84910        1.78460       -2.92970
C         -1.58080        2.58460       -3.96110
C          0.19100        2.90560       -1.03050
C         -0.57480        3.87240       -0.52510
Si         0.10750       -2.96810       -0.82810
C          0.07220       -4.14960       -2.25150
C         -0.88480       -5.07140       -2.36040
C          0.40460       -3.84770        0.77860
C          0.78260       -5.12490        0.85560
Si        -1.84380       -1.89200       -0.70310
C         -2.91790       -2.82630        0.48370
C         -4.02550       -3.46150        0.09890
C         -2.60500       -1.82770       -2.39040
C         -3.78630       -1.24740       -2.60070
Si        -1.45130        0.20730        0.00160
Si         0.07750        0.25260        1.64780
C         -0.44780       -0.87830        3.01240
C          0.18490       -0.89460        4.18520
C          0.21150        1.96750        2.33290
C         -0.80030        2.53460        2.98950
Si         2.06810       -0.39400        0.81210
C          2.90420       -1.50760        2.02860
C          3.48690       -1.02030        3.12380
C          3.15470        1.06450        0.47140
C          4.41790        0.90680        0.07630
C         -3.03620        1.05440        0.52060
S         -3.80870        0.15690        1.90350
C         -5.22320        1.29320        2.03860
H          5.93860       -3.23920       -1.75120
H          5.74810       -4.95950       -1.23730
H          4.91980       -4.37850       -2.73250
H          3.06140       -2.66410       -2.80220
H          4.08560       -1.52620       -1.83920
H          2.47330        2.17490       -2.90180
H          4.32400        1.25280       -4.13190
H          3.52240       -0.43510       -4.11800
H          0.24970       -1.89760       -4.05890
H          0.25160        0.88920       -5.33080
H         -0.28690       -0.72940       -6.09290
H         -2.85590        1.40870       -2.79060
H         -0.58490        2.99050       -4.11020
H         -2.36420        2.84080       -4.66660
H          1.26580        3.03430       -1.04950
H         -1.65530        3.77810       -0.50150
H         -0.11870        4.77560       -0.13400
H          0.84850       -4.08780       -3.00640
H         -0.88590       -5.75450       -3.20310
H         -1.67090       -5.15280       -1.61580
H          0.28730       -3.28650        1.69670
H          0.93560       -5.72800       -0.03290
H          0.93560       -5.72800       -0.03290
H         -2.61280       -2.88450        1.52100
H         -4.61440       -4.00800        0.82800
H         -4.35290       -3.45860       -0.93440
H         -2.07720       -2.27920       -3.22250
H         -4.34320       -0.79890       -1.78480
H         -4.20780       -1.22320       -3.59990
H         -1.30060       -1.52620        2.85950
H         -0.14810       -1.56410        4.97110
H          1.02590       -0.23670        4.37760
H          1.13660        2.51740        2.20930
H         -1.73270        2.00470        3.15080
H         -0.69490        3.54040        3.38240
H          2.90790       -2.57660        1.85260
H          3.49090        0.04580        3.32920
H          3.96460       -1.69290        3.82830
H          2.75680        2.06420        0.58850
H          5.03460        1.77600       -0.12600
H          4.85050       -0.08160       -0.03910
H         -3.72900        1.08300       -0.34450
H         -2.80090        2.09170        0.83120
H         -5.79400        1.30650        1.08680
H         -5.89050        0.94470        2.85320
H         -4.86770        2.31690        2.27860
