180
mol39-E-1
C         -3.75290        4.80330        1.14950
S         -3.31790        3.17670        0.45720
C         -1.63520        3.17050        1.13000
Si        -0.65010        1.62890        0.70400
Si        -1.60040        1.07660       -1.46070
Si        -1.50430        3.01640       -2.77610
C         -2.81490        4.27890       -2.31080
C         -1.66540        2.88740       -4.63910
C          0.06730        3.92470       -2.53280
Si        -3.91100        0.87740       -1.90410
C         -4.35890        1.20090       -3.69980
C         -5.00920        2.11500       -1.01360
C         -4.66740       -0.80580       -1.59730
Si        -0.44830       -0.88520       -2.10080
Si         0.44560       -0.56610       -4.25630
C          1.66340       -1.83680       -4.91850
C         -0.87130       -0.61120       -5.59270
C          1.27000        1.07980       -4.48430
Si        -1.70500       -2.70220       -2.87320
C         -0.72000       -3.98340       -3.82500
C         -2.39850       -3.67340       -1.48110
C         -3.13510       -2.36310       -4.03110
Si        -1.25240        0.14170        2.51760
Si        -3.52240        0.46510        2.93780
C         -4.60230        0.07120        1.52320
C         -4.04530        2.23780        3.30440
C         -4.17830       -0.57760        4.34190
Si        -0.76480        0.54640        4.77990
C          0.99590        0.98680        5.12910
C         -1.20720       -0.93330        5.82480
C         -1.68430        1.91790        5.68340
Si        -0.44690       -2.02330        1.91160
Si         1.01350       -3.38690        3.21070
C          0.65420       -5.23160        3.26680
C          1.17580       -3.01960        5.03660
C          2.73540       -3.55250        2.51230
Si        -2.17030       -3.60760        2.11520
C         -2.55700       -4.12380        3.88640
C         -3.82720       -3.09680        1.46500
C         -1.79160       -5.22940        1.23500
Si         0.78920       -1.58960       -0.10750
Si         2.69460       -0.15800        0.49910
Si         4.39810       -0.70670       -1.02160
C          3.79710       -0.73780       -2.75920
C          5.05780       -2.44880       -0.74200
C          5.98770        0.28110       -1.09240
Si         4.20510       -0.39210        2.28780
C          5.58480       -1.66970        2.26760
C          5.21760        1.14920        2.50140
C          3.36190       -0.70630        3.89160
Si         1.74820        2.04530        0.78070
Si         2.04270        3.55450        2.60930
C          0.48980        3.77990        3.59000
C          3.37270        3.31220        3.90550
C          2.35460        5.35390        2.17670
Si         3.05970        3.35390       -0.64380
C          3.20840        2.54560       -2.29460
C          2.53990        5.12600       -1.00590
C          4.81710        3.55950       -0.02980
C          1.15950       -3.39370       -0.52910
S          2.38200       -3.63780       -1.83300
C          2.30780       -5.45580       -1.78210
H         -4.80310        5.03930        0.88210
H         -3.09050        5.58820        0.72950
H         -3.65800        4.79020        2.25480
H         -1.68890        3.23450        2.22310
H         -1.10590        4.06560        0.78500
H         -2.42760        5.30550       -2.46870
H         -3.70520        4.16530       -2.95560
H         -3.10800        4.16990       -1.25450
H         -1.30790        1.91680       -4.98980
H         -2.71130        3.03940       -4.96340
H         -1.05730        3.68040       -5.11940
H          0.66340        3.94450       -3.46440
H          0.57540        3.37810       -1.73400
H         -0.12930        4.97260       -2.23570
H         -5.27120        0.63250       -3.97090
H         -4.58570        2.27050       -3.85820
H         -3.54080        0.89950       -4.36950
H         -5.20480        2.99970       -1.64650
H         -4.55530        2.44990       -0.07020
H         -5.99220        1.64760       -0.80320
H         -5.47230       -0.75460       -0.84010
H         -3.86800       -1.47280       -1.26260
H         -5.13780       -1.20720       -2.51380
H          1.29100       -2.26460       -5.87080
H          2.63660       -1.35940       -5.14290
H          1.80390       -2.65930       -4.20720
H         -0.54300       -0.00940       -6.46420
H         -1.02830       -1.64630       -5.94730
H         -1.82160       -0.21080       -5.21710
H          2.36880        0.97230       -4.49840
H          0.96840        1.54720       -5.44240
H          0.95370        1.70890       -3.64800
H          0.16600       -4.30560       -3.25840
H         -1.36270       -4.87170       -3.99330
H         -0.42060       -3.59780       -4.81470
H         -2.00740       -4.70880       -1.52410
H         -3.50540       -3.70740       -1.50730
H         -2.03830       -3.15770       -0.58620
H         -4.01820       -2.96000       -3.72700
H         -3.39040       -1.29890       -4.01610
H         -2.87700       -2.66100       -5.06560
H         -5.21340       -0.82910        1.69410
H         -5.32370        0.88960        1.35760
H         -3.89660       -0.04240        0.69630
H         -3.27280        2.81760        3.82490
H         -4.28450        2.77030        2.36370
H         -4.96080        2.22100        3.93010
H         -3.55790       -1.47900        4.43550
H         -4.16430       -0.01250        5.29200
H         -5.22650       -0.87500        4.13630
H          1.49170        0.19570        5.71870
H          1.05370        1.91650        5.72760
H          1.47580        1.15050        4.15430
H         -1.28960       -1.80920        5.16640
H         -0.43970       -1.09720        6.60730
H         -2.17560       -0.77290        6.33640
H         -2.76250        1.69450        5.76220
H         -1.53250        2.90490        5.21270
H         -1.28890        1.97720        6.71820
H          1.45850       -5.72320        3.85210
H         -0.29280       -5.46900        3.77580
H          0.68430       -5.66130        2.24760
H          2.10150       -3.49370        5.42120
H          1.23500       -1.94270        5.22080
H          0.32110       -3.44940        5.59340
H          2.87080       -4.52610        1.99920
H          2.89970       -2.76550        1.77070
H          3.48160       -3.53130        3.32680
H         -1.72820       -3.88230        4.56880
H         -2.73230       -5.21780        3.92140
H         -3.48250       -3.64720        4.25460
H         -3.67550       -2.28690        0.74620
H         -4.33270       -3.94570        0.96320
H         -4.46360       -2.77420        2.30910
H         -1.65380       -6.05110        1.96330
H         -2.64390       -5.52630        0.59340
H         -0.88240       -5.13590        0.61670
H          4.18700        0.13050       -3.32230
H          2.70350       -0.71890       -2.68760
H          4.13230       -1.65790       -3.27630
H          5.13460       -2.99450       -1.70280
H          6.08510       -2.41960       -0.33470
H          4.39670       -3.01180       -0.05890
H          5.84660        1.24920       -1.59660
H          6.41690        0.42060       -0.08920
H          6.72290       -0.28930       -1.69610
H          5.23880       -2.68240        2.00570
H          6.02750       -1.71960        3.28340
H          6.39120       -1.34650        1.58310
H          5.44470        1.31050        3.57410
H          6.18320        1.08470        1.97020
H          4.63450        1.97730        2.09140
H          2.29510       -0.81820        3.64890
H          3.75110       -1.61950        4.37660
H          3.55380        0.11810        4.59770
H         -0.09090        2.86640        3.47730
H          0.72400        3.96430        4.65670
H         -0.09180        4.64520        3.22190
H          4.35340        3.65470        3.51970
H          3.13610        3.94320        4.78630
H          3.42220        2.27160        4.24540
H          3.33960        5.49600        1.70400
H          2.36140        5.94090        3.11820
H          1.54420        5.76140        1.54900
H          4.26780        2.40620       -2.56800
H          2.68210        1.58430       -2.20920
H          2.75480        3.16940       -3.08420
H          3.25130        5.83950       -0.54630
H          2.55890        5.31050       -2.09850
H          1.52730        5.33150       -0.63140
H          5.30470        2.58230        0.06780
H          5.38840        4.16710       -0.76090
H          4.84580        4.06420        0.95200
H          0.22300       -3.84930       -0.87780
H          1.45170       -3.95860        0.35940
H          2.67490       -5.82230       -0.80080
H          1.26700       -5.80430       -1.94720
H          2.95620       -5.86560       -2.58310
