72
mol35-B-2
C          5.74260       -0.06810        1.69870
S          4.36490       -0.94580        0.89670
C          3.18260        0.41450        1.09160
Si         1.45550        0.06960        0.40190
Si         1.86500       -1.33730       -1.53170
C          3.24220       -0.50210       -2.63180
Cl         4.86090       -0.62520       -1.89990
Cl         3.38810       -1.16290       -4.27590
Cl         3.00040        1.20080       -2.84390
C          2.78740       -3.02110       -1.18360
Cl         3.64350       -3.69260       -2.59240
Cl         4.01390       -2.90680        0.09400
Cl         1.69670       -4.29850       -0.74290
Si        -0.26870       -1.74180       -2.54570
C         -0.74090       -3.61540       -2.97510
Cl        -2.02150       -3.80650       -4.19540
Cl         0.61230       -4.60220       -3.58560
Cl        -1.42940       -4.48240       -1.64470
C         -0.23250       -1.12440       -4.43140
Cl        -1.83530       -1.00750       -5.21660
Cl         0.66240       -2.23080       -5.49970
Cl         0.59630        0.40220       -4.69400
Si         0.41920        2.25990       -0.04030
C          0.93970        3.52360       -1.47040
Cl         0.51030        3.03740       -3.09230
Cl         0.10300        5.07850       -1.21260
Cl         2.66650        3.95010       -1.61840
C          0.90460        3.47470        1.48360
Cl        -0.46080        4.42420        2.07290
Cl         1.70790        2.69680        2.84350
Cl         2.12020        4.73900        1.17550
Si        -1.88540        1.61350       -0.57040
C         -3.30350        2.45770        0.56310
Cl        -4.80860        1.51180        0.57160
Cl        -3.77410        4.09090        0.03710
Cl        -2.97070        2.81820        2.23980
C         -2.66220        2.28810       -2.26760
Cl        -2.04960        1.48860       -3.65490
Cl        -2.43800        4.01600       -2.63520
Cl        -4.41450        2.00410       -2.42840
Si        -1.81510       -0.85700       -0.83810
Si        -1.68560       -2.00660        1.35730
C         -3.39540       -1.58010        2.29620
Cl        -3.88770       -2.58130        3.68570
Cl        -3.47950       -0.00400        3.00140
Cl        -4.78650       -1.69900        1.20960
C         -1.76530       -3.95490        1.72480
Cl        -1.50850       -4.29600        3.45330
Cl        -0.58240       -5.06060        1.06890
Cl        -3.33680       -4.64060        1.23560
Si         0.41020       -1.20540        2.22510
C         -0.00130       -0.21710        3.84500
Cl        -0.79000        1.28820        3.52900
Cl         1.43120        0.19460        4.82390
Cl        -1.11780       -1.09860        4.91700
C          1.68170       -2.49330        3.06690
Cl         1.96600       -3.99890        2.23810
Cl         1.21340       -3.05070        4.69240
Cl         3.30800       -1.81300        3.28520
C         -3.48680       -1.11020       -1.69190
S         -4.10230       -2.82060       -1.71490
C         -5.63350       -2.41680       -2.61140
H          5.98710        0.85530        1.13350
H          5.47390        0.19010        2.74410
H          6.63340       -0.72870        1.70970
H          3.59410        1.30700        0.59280
H          3.10630        0.63250        2.16410
H         -4.24040       -0.47890       -1.19570
H         -3.38720       -0.76810       -2.73810
H         -6.22700       -3.34360       -2.74840
H         -6.23510       -1.68700       -2.03020
H         -5.39100       -1.99480       -3.60900
