144
mol31-C-0
C          3.40400       -1.38060        5.80020
S          2.10270       -0.41600        4.96940
C          2.47980       -1.04560        3.30020
Si         1.46320       -0.44990        1.78940
Si         3.19700       -0.11770        0.17280
C          4.02910        1.56210        0.73030
C          5.05710        1.45290        1.86940
C          4.68200        2.42420       -0.34920
C          4.58410       -1.49420        0.12220
C          5.15670       -1.97490        1.46880
C          5.77700       -1.10180       -0.75750
Si         2.14780       -0.06180       -1.95520
C          2.32340       -1.69310       -2.98260
C          3.71080       -2.07280       -3.50860
C          1.74960       -2.88190       -2.25860
C          2.82760        1.31830       -3.17100
C          4.34880        1.35510       -3.38750
C          2.17080        1.34580       -4.55430
Si         0.26610        1.59920        2.01900
C          1.25470        3.02880        2.88620
C          2.27840        2.56660        3.91080
C          0.38140        4.10390        3.54930
C         -1.31010        1.24890        3.06300
C         -0.99820        0.73810        4.46850
C         -2.32680        2.39420        3.18490
Si        -0.35190        2.24850       -0.17510
C         -2.10900        3.09100       -0.26780
C         -2.79250        2.95520       -1.62590
C         -2.12720        4.58180        0.10770
C          0.90290        3.55390       -0.84090
C          1.09300        4.83680       -0.00910
C          0.63870        3.96520       -2.29290
Si        -0.17380        0.27930       -1.50530
Si        -1.44360       -1.44760       -0.41430
C         -1.85670       -3.02890       -1.48810
C         -3.19010       -3.71510       -1.16410
C         -1.79870       -2.81710       -2.99750
C         -3.12660       -0.58720        0.05670
C         -3.88150       -1.12110        1.27580
C         -4.14830       -0.46940       -1.09240
Si        -0.12750       -2.19010        1.40480
C         -1.12770       -2.58190        3.03270
C         -0.27990       -3.11140        4.19230
C         -2.32740       -3.52390        2.87090
C          0.65450       -3.89310        0.91330
C         -0.22200       -5.12990        1.13580
C          2.03440       -4.12680        1.49950
C         -1.07820        0.62520       -3.15870
S         -0.56160       -0.34650       -4.61190
C         -1.74350        0.43390       -5.75540
H          3.22520       -2.46640        5.65510
H          4.40060       -1.10590        5.39610
H          3.38260       -1.15570        6.88610
H          2.44430       -2.14470        3.32960
H          3.51770       -0.77650        3.12640
H          3.18620        2.15290        1.10940
H          5.26730        2.46410        2.28020
H          6.01940        1.03930        1.50900
H          4.71350        0.85350        2.71540
H          5.59390        1.94660       -0.75460
H          4.99290        3.39940        0.08480
H          3.98020        2.67960       -1.14300
H          4.12270       -2.37890       -0.34780
H          5.63810       -1.15990        2.03530
H          5.93390       -2.74950        1.29370
H          4.41110       -2.47340        2.10080
H          6.51140       -1.93400       -0.81000
H          5.46950       -0.91680       -1.78970
H          6.30110       -0.21250       -0.36280
H          1.69920       -1.54500       -3.87870
H          4.33910       -2.52720       -2.72030
H          3.60070       -2.84230       -4.30300
H          4.22900       -1.22430       -3.96890
H          2.44800       -3.25280       -1.48620
H          0.81590       -2.56250       -1.79140
H          1.53410       -3.70930       -2.96840
H          2.57150        2.27330       -2.70990
H          4.66770        0.84090       -4.31680
H          4.88260        0.92050       -2.54510
H          4.68580        2.40910       -3.49330
H          2.66880        2.09810       -5.20440
H          1.12440        1.67310       -4.48990
H          2.24940        0.36160       -5.05740
H          1.84420        3.52270        2.10150
H          2.98340        3.39360        4.14370
H          1.78710        2.26850        4.85780
H          2.86830        1.73750        3.50390
H         -0.08660        3.72660        4.47990
H          1.00820        4.98080        3.81960
H         -0.41140        4.46800        2.88210
H         -1.80140        0.44270        2.50320
H         -1.93910        0.47870        4.99990
H         -0.39790       -0.17280        4.41750
H         -0.45340        1.49600        5.06450
H         -2.17270        3.16140        2.42880
H         -2.27070        2.90780        4.16820
H         -3.35860        1.99640        3.07550
H         -2.76940        2.57330        0.44710
H         -3.76710        3.48930       -1.62820
H         -3.02850        1.90510       -1.81850
H         -2.17370        3.37330       -2.44120
H         -1.63430        5.20170       -0.66560
H         -3.17740        4.93360        0.19800
H         -1.65220        4.77890        1.07760
H          1.85440        3.00860       -0.79520
H          0.53130        4.81080        0.92620
H          0.75410        5.75120       -0.54230
H          2.16920        4.98170        0.22710
H          1.51230        4.52560       -2.69010
H          0.49070        3.09160       -2.92860
H         -0.25160        4.61670       -2.38160
H         -1.08020       -3.77800       -1.26620
H         -4.04780       -3.15980       -1.58450
H         -3.33790       -3.86060       -0.09050
H         -3.20650       -4.72890       -1.61950
H         -2.09740       -3.74370       -3.53380
H         -2.48080       -2.00860       -3.31830
H         -0.76650       -2.61370       -3.31430
H         -2.81360        0.43050        0.32380
H         -3.26340       -1.12370        2.17500
H         -4.73880       -0.45050        1.50220
H         -4.29730       -2.12920        1.08730
H         -3.70140       -0.59740       -2.08330
H         -4.95660       -1.22560       -1.01390
H         -4.65680        0.51630       -1.04590
H         -1.54380       -1.62670        3.36320
H          0.17490       -4.09130        3.96080
H          0.50860       -2.41080        4.45780
H         -0.91150       -3.23310        5.09880
H         -2.08670       -4.57930        3.10980
H         -3.14480       -3.22000        3.56000
H         -2.70690       -3.48780        1.85270
H          0.79990       -3.87200       -0.15820
H          0.18640       -5.98490        0.55460
H         -0.22840       -5.44060        2.19720
H         -1.25400       -4.96120        0.77570
H          2.66780       -3.28390        1.20210
H          2.48530       -5.04950        1.07510
H          2.00300       -4.22940        2.60070
H         -2.13820        0.40820       -3.02820
H         -1.00410        1.68790       -3.42100
H         -2.78320        0.25680       -5.40960
H         -1.61950       -0.01320       -6.76290
H         -1.54840        1.52450       -5.82020
