60
mol37-D-0
C          3.78940       -3.31570       -4.40370
S          2.23580       -2.42010       -4.09020
C          2.84490       -0.77080       -4.58650
Si         1.49700        0.51700       -4.40990
Si        -0.31370        0.01320       -5.62380
C          0.09860        0.19050       -7.38110
C          0.37500        0.31710       -8.54670
C         -0.87250       -1.68000       -5.29080
C         -1.24900       -2.80180       -5.06410
Si        -1.97140        1.41810       -5.10620
C         -3.11660        0.61200       -3.95370
C         -3.87090        0.07910       -3.18050
C         -2.83970        1.88860       -6.62740
C         -3.41180        2.20460       -7.63940
Si         0.88030        0.79600       -2.28540
C         -0.11030       -0.63370       -1.77170
C         -0.77260       -1.58350       -1.43970
C          2.34840        0.95330       -1.23220
C          3.32600        1.06170       -0.53660
Si        -0.34030        2.65840       -2.10880
C         -1.69770        2.34580       -0.94690
C         -2.59880        2.13030       -0.17680
C          0.70350        4.00520       -1.48750
C          1.40200        4.89910       -1.08260
Si        -1.12230        3.23150       -4.12540
Si         0.60250        3.91380       -5.36200
C          1.13210        5.55750       -4.80800
C          1.48390        6.64710       -4.43340
C          0.09260        3.98310       -7.10120
C         -0.24760        4.02050       -8.25610
Si         2.28950        2.46960       -5.13720
C          3.10440        2.23320       -6.74010
C          3.64010        2.07260       -7.80710
C          3.47940        3.11210       -3.92860
C          4.26340        3.53920       -3.11980
C         -2.36840        4.62580       -4.02820
S         -3.77290        4.16750       -2.95350
C         -4.68990        5.72930       -3.13660
H          4.59900       -2.91160       -3.76520
H          4.07180       -3.22790       -5.47330
H          3.64370       -4.38740       -4.15790
H          3.13970       -0.81440       -5.65490
H          3.72910       -0.45170       -3.99680
H          0.61890        0.43110       -9.57000
H         -1.57900       -3.78680       -4.86320
H         -4.53190       -0.38840       -2.49940
H         -3.91300        2.48350       -8.52840
H         -1.35530       -2.41790       -1.15050
H          4.18540        1.15770        0.07310
H         -3.39120        1.94040        0.49810
H          2.01720        5.68420       -0.72950
H          1.79290        7.60350       -4.10270
H         -0.54760        4.05050       -9.27020
H          4.10930        1.93080       -8.74480
H          4.94990        3.91370       -2.40720
H         -2.69190        4.89350       -5.05530
H         -1.86250        5.50750       -3.58450
H         -4.07830        6.57720       -2.76440
H         -5.62330        5.67140       -2.54030
H         -4.95630        5.89390       -4.19890
