72
mol34-E-1
C         -2.15660        5.54680       -1.03390
S         -1.22140        4.30840       -0.08370
C         -1.09370        3.13200       -1.46340
Si        -0.15660        1.58220       -0.97430
Si        -1.19520        0.51800        0.77460
C         -2.99640        0.11450        0.39310
F         -3.45850       -0.83410        1.28410
F         -3.14170       -0.36200       -0.88520
F         -3.76280        1.25590        0.52860
C         -1.37760        1.55880        2.33050
F         -1.69550        2.85770        1.98420
F         -2.39600        1.04740        3.11190
F         -0.22070        1.53830        3.07290
Si         0.00360       -1.34950        1.24460
C         -1.04950       -2.87870        0.92170
F         -0.23660       -3.98590        0.78250
F         -1.90050       -3.09280        1.98870
F         -1.81760       -2.71660       -0.20560
C          0.32560       -1.54320        3.09170
F          1.25930       -0.64640        3.53900
F         -0.84950       -1.34700        3.79090
F          0.78870       -2.82070        3.34260
Si         0.05890        0.14120       -2.75900
C          0.55140        1.11430       -4.29490
F          1.65130        1.89770       -4.06110
F         -0.49920        1.92940       -4.67000
F          0.83810        0.24630       -5.33010
C         -1.50060       -0.72580       -3.37030
F         -1.26960       -1.25690       -4.62420
F         -1.85150       -1.75570       -2.53380
F         -2.54360        0.17080       -3.46420
Si         1.57080       -1.46120       -2.19400
C          0.98630       -3.20540       -2.59890
F          2.02870       -4.08970       -2.39800
F         -0.06480       -3.57960       -1.80300
F          0.58780       -3.27360       -3.91950
C          3.04620       -1.29960       -3.35790
F          4.10660       -2.05030       -2.89720
F          3.43050        0.01160       -3.48670
F          2.69620       -1.76460       -4.61060
Si         1.97840       -1.29410        0.06740
Si         3.12140        0.64460        0.51950
C          4.87130        0.61840       -0.18040
F          5.37370        1.90400       -0.22310
F          4.89600        0.08470       -1.44410
F          5.68300       -0.14430        0.63690
C          3.46410        0.94710        2.34380
F          4.52590        1.82150        2.47600
F          3.79470       -0.24580        2.95690
F          2.37180        1.50830        2.96180
Si         1.90490        2.36460       -0.32160
C          1.72900        3.78140        0.90920
F          0.86460        3.46550        1.92360
F          1.24670        4.89810        0.25350
F          2.96320        4.07950        1.45350
C          2.87790        3.22210       -1.68910
F          3.80590        4.08130       -1.13290
F          2.02080        3.95910       -2.48190
F          3.55610        2.30690       -2.45700
C          2.92210       -2.78760        0.69840
S          4.55480       -2.93670       -0.08660
C          5.01620       -4.44460        0.82150
H         -2.37230        6.41660       -0.38040
H         -3.11670        5.11370       -1.38400
H         -1.55960        5.89060       -1.90410
H         -0.55980        3.61110       -2.30940
H         -2.11100        2.83940       -1.79240
H          3.04760       -2.68410        1.79560
H          2.32640       -3.69750        0.48340
H          6.03170       -4.76010        0.50610
H          4.29950       -5.26110        0.59420
H          5.02490       -4.24490        1.91320
