180
mol39-D-2
C          4.90190        1.90650        3.78280
S          3.79750        0.56050        3.25200
C          3.01870        1.50820        1.92920
Si         1.69550        0.58100        0.95030
Si         2.42800       -1.34800       -0.39170
Si         4.43110       -0.67760       -1.41620
C          5.26200       -1.74420       -2.71200
C          5.82410       -0.46630       -0.16640
C          4.28830        0.97820       -2.20380
Si         3.44940       -3.33770        0.33000
C          5.26000       -3.40820        0.83430
C          2.56960       -4.09120        1.75790
C          3.46330       -4.60270       -1.02820
Si         0.45280       -2.08210       -1.56840
Si        -0.43510       -4.29490       -1.73290
C         -1.02690       -4.84390       -3.42730
C         -2.03200       -4.47360       -0.81700
C          0.54490       -5.81510       -1.24480
Si         1.15320       -2.08910       -3.79860
C          2.39010       -3.44540       -4.17030
C          2.01740       -0.50980       -4.20160
C         -0.12620       -2.31540       -5.15980
Si         0.68400        2.40620       -0.32950
Si         1.68980        3.58230       -2.10500
C          0.88050        5.24730       -2.41590
C          3.49020        4.09760       -1.93300
C          1.57530        2.70410       -3.73530
Si         0.71620        4.33400        0.99160
C          0.36620        3.93720        2.74610
C         -0.42980        5.74050        0.53530
C          2.38250        5.19080        1.08000
Si        -1.41370        1.58350       -1.04400
Si        -3.16320        3.04320       -0.40980
C         -4.90270        2.33180       -0.50790
C         -3.01420        3.87400        1.26320
C         -3.32270        4.52110       -1.56110
Si        -2.06770        1.76010       -3.29050
C         -3.90130        1.44370       -3.54950
C         -1.26960        0.48230       -4.32950
C         -1.76090        3.35640       -4.22450
Si        -1.31590       -0.78390       -0.51300
Si        -1.38400       -1.33060        1.84380
Si        -1.66600       -3.50130        2.69400
C         -1.49320       -3.52270        4.55190
C         -0.51450       -4.77970        2.01140
C         -3.34250       -4.32380        2.46010
Si        -3.49070       -0.73180        2.59620
C         -3.78560       -1.11290        4.40100
C         -4.96720       -1.44540        1.66870
C         -3.75210        1.05780        2.43390
Si         0.49580       -0.27250        2.85520
Si         2.16570       -1.38970        4.13710
C          2.82440       -0.52020        5.66970
C          1.74080       -3.06530        4.84860
C          3.81970       -1.53350        3.28850
Si        -0.15950        0.99600        4.73730
C         -0.51840       -0.04940        6.26440
C         -1.68050        2.06850        4.67830
C          1.19250        2.18280        5.29270
C         -3.02010       -1.32950       -1.08440
S         -3.08120       -1.83450       -2.82420
C         -4.85830       -2.22980       -2.80500
H          5.56860        1.53040        4.58540
H          5.52330        2.25420        2.93140
H          4.30350        2.75260        4.18050
H          2.63190        2.44840        2.32970
H          3.81200        1.78860        1.22350
H          4.74140       -1.69390       -3.68000
H          6.28550       -1.35050       -2.87910
H          5.35740       -2.78560       -2.37110
H          5.42800       -0.46990        0.86490
H          6.36400        0.48470       -0.34340
H          6.58020       -1.26450       -0.28270
H          5.14390        1.62300       -1.92400
H          4.27690        0.88630       -3.30600
H          3.35210        1.40140       -1.82170
H          5.44620       -4.38440        1.32680
H          5.54990       -2.61670        1.54340
H          5.90480       -3.37350       -0.06390
H          2.18180       -5.08780        1.49060
H          3.25510       -4.25080        2.60910
H          1.77120       -3.38210        2.02490
H          2.63120       -4.36720       -1.69590
H          4.40680       -4.58290       -1.60070
H          3.36160       -5.62040       -0.60170
H         -1.79430       -4.15910       -3.82610
H         -1.50540       -5.83930       -3.32190
H         -0.18920       -4.96470       -4.13280
H         -2.01830       -3.73290       -0.02010
H         -2.13300       -5.49460       -0.39970
H         -2.89690       -4.29710       -1.48260
H          1.05240       -5.67950       -0.28310
H          1.26460       -6.08300       -2.04370
H         -0.15090       -6.67220       -1.13940
H          3.28290       -3.33270       -3.54360
H          2.69580       -3.37650       -5.23430
H          1.95870       -4.44570       -3.98830
H          1.47180        0.05500       -4.97720
H          2.05820        0.06130       -3.26330
H          3.02620       -0.70650       -4.60180
H          0.01320       -3.29200       -5.66320
H          0.00150       -1.53290       -5.93410
H         -1.14900       -2.25500       -4.76160
H         -0.19120        5.21020       -2.18580
H          1.35470        6.03120       -1.79740
H          1.01410        5.53730       -3.47780
H          3.58740        5.19570       -2.04830
H          3.88880        3.82270       -0.94960
H          4.10250        3.63840       -2.73280
H          2.55190        2.27640       -4.02250
H          1.26500        3.39880       -4.54050
H          0.82810        1.91460       -3.61700
H          1.24860        4.20050        3.36060
H          0.19110        2.85610        2.75270
H         -0.51310        4.49160        3.12910
H          0.13900        6.57090        0.07400
H         -0.92080        6.14030        1.44500
H         -1.19210        5.39310       -0.16800
H          3.17910        4.48420        1.35620
H          2.62620        5.68350        0.12300
H          2.33510        5.97870        1.85930
H         -5.52790        2.77530        0.29330
H         -5.38650        2.59330       -1.46670
H         -4.90140        1.23680       -0.40700
H         -3.03300        4.97550        1.16650
H         -2.06980        3.56200        1.72290
H         -3.86900        3.61480        1.91550
H         -3.74050        5.38920       -1.01270
H         -2.34570        4.80140       -1.97800
H         -4.01970        4.29960       -2.38870
H         -4.06920        0.96220       -4.53370
H         -4.45970        2.39710       -3.55730
H         -4.30180        0.78590       -2.76170
H         -0.59980        0.94170       -5.08030
H         -0.72120       -0.14060       -3.61820
H         -2.03070       -0.10910       -4.87310
H         -1.53140        3.12990       -5.28520
H         -2.65710        4.00390       -4.21660
H         -0.91430        3.89550       -3.79370
H         -0.92460       -4.41700        4.87660
H         -0.98030       -2.60230        4.86470
H         -2.48830       -3.56540        5.03510
H         -0.01300       -4.32250        1.14820
H          0.20260       -5.12060        2.77900
H         -1.07840       -5.67250        1.67800
H         -3.63680       -4.37850        1.39740
H         -4.12480       -3.80720        3.04320
H         -3.28020       -5.36130        2.84720
H         -4.45990       -0.35220        4.84380
H         -2.82390       -1.09930        4.93100
H         -4.26510       -2.10180        4.51980
H         -5.84460       -1.45580        2.34700
H         -4.79370       -2.46610        1.30330
H         -5.22080       -0.81410        0.79700
H         -4.63110        1.23500        1.80380
H         -2.82390        1.43160        1.97960
H         -3.99160        1.53520        3.39800
H          2.06780       -0.40290        6.45980
H          3.63270       -1.14640        6.10070
H          3.27720        0.45200        5.39800
H          2.67770       -3.60420        5.09630
H          1.15960       -2.95310        5.78370
H          1.17240       -3.66370        4.13080
H          4.53740       -0.77960        3.67050
H          4.27170       -2.51900        3.50040
H          3.69100       -1.34890        2.21850
H         -1.60360       -0.12600        6.45620
H         -0.07750        0.43610        7.15810
H         -0.09840       -1.06130        6.17100
H         -2.55140        1.47120        4.99960
H         -1.83140        2.49600        3.68120
H         -1.57590        2.90100        5.40280
H          2.01850        2.20410        4.56150
H          0.78030        3.20380        5.41040
H          1.58890        1.89340        6.28450
H         -3.39280       -2.14600       -0.45270
H         -3.69760       -0.47950       -0.94000
H         -5.06040       -3.05010       -2.08570
H         -5.44970       -1.33450       -2.52260
H         -5.16520       -2.55780       -3.81880
