60
mol37-C-2
C         -5.62840       -1.27650        0.58930
S         -4.52250       -1.69250       -0.79730
C         -3.50680       -0.17910       -0.69040
Si        -2.17500       -0.19020       -2.00350
Si        -3.17200       -0.22850       -3.99560
C         -4.44590       -1.51920       -4.00980
C         -5.28730       -2.38130       -4.01620
C         -3.92610        1.39090       -4.30890
C         -4.41890        2.47050       -4.51580
Si        -1.65120       -0.66030       -5.56770
C         -1.99790        0.33850       -7.04110
C         -2.22590        1.00800       -8.01630
C         -1.69700       -2.42390       -5.98870
C         -1.72500       -3.59730       -6.25990
Si        -0.82200       -1.96630       -1.86220
C         -1.74940       -3.44890       -2.34170
C         -2.36860       -4.42950       -2.66740
C         -0.17480       -2.15650       -0.17830
C          0.26050       -2.27830        0.93850
Si         0.90860       -1.67620       -3.24670
C          2.33730       -1.07650       -2.30350
C          3.28150       -0.66950       -1.67590
C          1.31650       -3.24570       -4.05800
C          1.58220       -4.28770       -4.60090
Si         0.37310       -0.15460       -4.78650
Si         0.26050        1.84500       -3.78920
C          1.91570        2.45000       -3.35960
C          3.01470        2.84800       -3.06790
C         -0.55570        3.01360       -4.91020
C         -1.10430        3.78380       -5.65640
Si        -0.92410        1.65320       -1.90340
C         -1.99270        3.10380       -1.69870
C         -2.70690        4.06500       -1.56730
C          0.20990        1.51510       -0.49430
C          0.96550        1.41420        0.43840
C          1.57210       -0.18950       -6.22140
S          3.26730        0.17100       -5.64700
C          4.05400        0.03840       -7.28480
H         -6.11120       -0.29240        0.41590
H         -5.05090       -1.24760        1.53670
H         -6.41550       -2.05350        0.67030
H         -4.10880        0.74690       -0.79680
H         -3.01250       -0.15690        0.30230
H         -6.02530       -3.13960       -4.02110
H         -4.84900        3.42010       -4.69670
H         -2.42560        1.59740       -8.87200
H         -1.74850       -4.62850       -6.49520
H         -2.91340       -5.28940       -2.95590
H          0.64170       -2.38310        1.91980
H          4.10950       -0.30910       -1.12450
H          1.81420       -5.20290       -5.07860
H          3.98090        3.19560       -2.81250
H         -1.58830        4.45840       -6.31220
H         -3.33500        4.90890       -1.45320
H          1.62980        1.32270        1.25680
H          1.55820       -1.20910       -6.65800
H          1.22440        0.52290       -6.99790
H          3.57110        0.73360       -8.00240
H          5.12690        0.30450       -7.19360
H          3.97110       -1.00290       -7.65980
