144
mol31-D-2
C         -5.40550        2.88770        0.64860
S         -3.76080        2.49330        1.32110
C         -3.27770        1.40800       -0.05850
Si        -1.54160        0.60350        0.02000
Si        -0.07380        1.72320       -1.43900
C         -0.27600        3.65750       -1.63620
C         -0.74690        4.16890       -3.00470
C         -1.13020        4.32410       -0.54540
C         -0.33270        0.92480       -3.18730
C         -1.74160        1.03970       -3.77060
C          0.68660        1.30830       -4.27990
Si         2.06130        1.21220       -0.57460
C          3.27780        1.29700       -2.07150
C          3.58040        2.73290       -2.51130
C          4.59080        0.53480       -1.94600
C          2.60080        2.44110        0.82410
C          2.38670        3.93130        0.54130
C          4.03040        2.24860        1.32370
Si        -0.92120        0.77960        2.31680
C         -0.59410        2.67540        2.68330
C          0.30840        2.99600        3.87590
C         -1.84030        3.56560        2.84840
C         -2.36320        0.24150        3.51070
C         -3.77240        0.72450        3.15590
C         -2.10720        0.58040        4.98310
Si         0.95960       -0.69860        2.59530
C          2.27190       -0.04570        3.88330
C          3.57600       -0.84640        4.00880
C          1.71470        0.12330        5.29900
C          0.48300       -2.50240        3.15570
C         -0.61570       -2.62790        4.22810
C          1.66790       -3.35510        3.62470
Si         1.92350       -0.90820        0.43910
Si         0.66230       -2.38720       -0.90940
C          1.39620       -2.26060       -2.72310
C          0.44340       -2.72470       -3.83140
C          2.73880       -2.96640       -2.97630
C          0.86250       -4.25170       -0.36510
C          2.26180       -4.70610        0.06580
C          0.32470       -5.26200       -1.38570
Si        -1.62290       -1.68170       -0.62250
C         -2.47840       -2.60580        0.84960
C         -2.27980       -4.13250        0.92700
C         -3.97460       -2.31710        1.00350
C         -2.74750       -1.95810       -2.19380
C         -4.14780       -1.32970       -2.16410
C         -2.90610       -3.42610       -2.59110
C          3.62220       -1.79350        0.53840
S          5.12300       -0.82320        0.89580
C          6.25610       -2.24690        0.83390
H         -6.00770        1.96110        0.54450
H         -5.30510        3.38460       -0.33890
H         -5.92480        3.57630        1.34580
H         -4.01950        0.61320       -0.09280
H         -3.41500        1.96650       -0.98820
H          0.74860        4.05310       -1.55600
H         -0.62250        5.27290       -3.04470
H         -1.82240        3.96500       -3.16380
H         -0.14980        3.76330       -3.83640
H         -0.57270        5.13360       -0.03190
H         -1.45840        3.58110        0.18330
H         -2.05050        4.79730       -0.94910
H         -0.21980       -0.13770       -2.96780
H         -1.96500        2.04680       -4.15950
H         -1.84970        0.33450       -4.62310
H         -2.48580        0.75610       -3.02510
H          1.34790        2.12700       -3.95900
H          1.29670        0.42790       -4.56920
H          0.19710        1.65970       -5.21410
H          2.76120        0.78760       -2.89200
H          2.66090        3.34360       -2.56440
H          4.03650        2.72880       -3.52450
H          4.29970        3.21280       -1.81580
H          4.39510       -0.52690       -1.74240
H          5.13900        0.56990       -2.91230
H          5.25240        0.97610       -1.18020
H          1.95270        2.17850        1.66900
H          2.85960        4.25600       -0.40060
H          1.32100        4.16680        0.53530
H          2.80330        4.55620        1.35990
H          4.76150        2.31180        0.49820
H          4.10520        1.30060        1.86890
H          4.30060        3.02280        2.07340
H         -0.07190        3.03460        1.78960
H          0.49550        4.09070        3.92650
H         -0.16980        2.70290        4.82980
H          1.29720        2.54790        3.77670
H         -1.53960        4.63500        2.80960
H         -2.58080        3.44350        2.05580
H         -2.33510        3.40570        3.82480
H         -2.42580       -0.84690        3.43930
H         -4.10180        0.29940        2.20250
H         -3.85260        1.82410        3.13200
H         -4.50170        0.35750        3.91000
H         -1.09920        0.29520        5.29390
H         -2.81500        0.01710        5.62860
H         -2.25080        1.65710        5.18940
H          2.58660        0.93910        3.51470
H          4.42120       -0.15960        4.23120
H          3.81390       -1.37990        3.09590
H          3.54400       -1.59090        4.83020
H          1.33520       -0.83910        5.69580
H          2.51030        0.48910        5.98400
H          0.92490        0.87440        5.33120
H          0.11070       -2.97260        2.23600
H         -0.60530       -1.77470        4.91880
H         -1.61220       -2.77060        3.77960
H         -0.48440       -3.53790        4.85380
H          1.92550       -3.12880        4.67940
H          2.55720       -3.21910        3.00740
H          1.39680       -4.43180        3.57060
H          1.61550       -1.19410       -2.88030
H          0.89820       -2.55110       -4.83030
H         -0.48310       -2.15320       -3.84230
H          0.21900       -3.80400       -3.74830
H          3.03660       -2.85130       -4.04100
H          3.56440       -2.50860       -2.42580
H          2.68800       -4.05030       -2.77890
H          0.25680       -4.36930        0.53630
H          2.32400       -5.81510        0.10830
H          3.05400       -4.36440       -0.61820
H          2.46280       -4.38020        1.09520
H         -0.66200       -4.97410       -1.75570
H          0.20450       -6.25640       -0.90420
H          1.01010       -5.38900       -2.24430
H         -1.98330       -2.15680        1.71750
H         -1.97020       -4.55180       -0.03860
H         -1.55430       -4.39800        1.71890
H         -3.20780       -4.67220        1.21610
H         -4.22710       -1.29740        0.71340
H         -4.58330       -3.01070        0.38660
H         -4.27570       -2.45690        2.06410
H         -2.24470       -1.45790       -3.02480
H         -4.83700       -1.85150       -1.47950
H         -4.11340       -0.26460       -1.92720
H         -4.60200       -1.39020       -3.17690
H         -1.95140       -3.83340       -2.94340
H         -3.31890       -4.02680       -1.75790
H         -3.60100       -3.52550       -3.45280
H          3.80210       -2.29650       -0.40610
H          3.57920       -2.58640        1.28290
H          5.97490       -2.99270        1.60640
H          7.28870       -1.89530        1.03390
H          6.22510       -2.71600       -0.17150
