180
mol33-A-2
C          5.55520        0.10700        3.57120
S          4.67020        0.67760        2.08640
C          3.12440       -0.16350        2.49350
Si         1.67250        0.01510        1.29460
Si         0.28060       -2.04840        1.88340
C          1.00790       -3.96560        1.76090
C          0.02490       -4.98970        2.39040
C          2.38280       -4.22610        2.46210
C          1.15120       -4.38810        0.29330
C         -0.04720       -1.97810        3.90480
C         -0.22780       -0.53000        4.38150
C         -1.27270       -2.76390        4.45420
C          1.15380       -2.53540        4.71380
Si        -1.62390       -1.80630        0.27140
C         -2.19750       -3.40080       -0.90070
C         -2.19920       -4.80940       -0.23500
C         -3.62930       -3.26550       -1.48980
C         -1.28550       -3.51210       -2.12100
C         -3.35300       -1.66570        1.37120
C         -4.64800       -1.27070        0.58270
C         -3.16980       -0.65040        2.50300
C         -3.69130       -3.01040        2.06850
Si         3.16050       -0.11240       -0.80870
C          4.41920        1.39800       -1.39380
C          5.27880        0.94510       -2.60530
C          5.44640        1.91290       -0.32710
C          3.60590        2.61400       -1.86780
C          4.60550       -1.54770       -0.48780
C          4.04330       -2.65910        0.39750
C          5.87530       -1.05060        0.26360
C          5.19300       -2.24140       -1.75010
Si         1.42700       -0.42830       -2.59500
C          1.48050        0.75370       -4.27160
C          0.84780        2.10850       -3.96060
C          0.67370        0.16950       -5.46850
C          2.87250        1.07160       -4.88800
C          1.75500       -2.22080       -3.51740
C          2.03380       -3.31540       -2.47910
C          0.58360       -2.70390       -4.42950
C          3.01840       -2.18880       -4.42220
Si        -0.75210        0.07370       -1.29510
Si        -0.98170        2.48900       -0.37850
C         -0.48340        4.20090       -1.41320
C         -0.98940        4.24750       -2.89090
C         -1.04310        5.52170       -0.78650
C          1.04600        4.35650       -1.42350
C         -3.00490        2.86490       -0.27460
C         -3.63500        3.32040       -1.61960
C         -3.50230        3.94290        0.73690
C         -3.74160        1.57390        0.06420
Si         0.50870        2.29010        1.68660
C          2.02200        3.62780        2.07870
C          2.41840        3.88630        3.56820
C          3.30130        3.08060        1.47750
C          1.76410        5.04410        1.50250
C         -0.66790        2.83950        3.25050
C         -0.08600        2.61230        4.68000
C         -2.01620        2.12910        3.20520
C         -1.00210        4.34850        3.14190
C         -2.14490       -0.17710       -2.56120
S         -2.23440        0.93550       -3.98460
C         -3.70910        0.14950       -4.70620
H          6.58570        0.51670        3.55650
H          5.60940       -1.00160        3.58070
H          5.03860        0.46650        4.48550
H          2.81650        0.18890        3.47950
H          3.34410       -1.22460        2.58550
H          0.14780       -5.09750        3.48070
H          0.20030       -6.02690        2.03170
H         -1.01570       -4.73140        2.17080
H          2.88850       -3.29620        2.72390
H          2.32010       -4.82430        3.39240
H          3.08110       -4.83330        1.84890
H          2.17740       -4.38890       -0.07120
H          0.53750       -3.72440       -0.31310
H          0.88910       -5.44490        0.08270
H          0.47750       -0.22830        5.18010
H         -0.10220        0.15600        3.53860
H         -1.21170       -0.36540        4.86380
H         -1.27230       -2.74410        5.56720
H         -1.32990       -3.81880        4.18850
H         -2.22080       -2.31110        4.18380
H          1.08720       -2.25790        5.78950
H          2.11520       -2.14760        4.35250
H          1.16450       -3.63360        4.74620
H         -2.60450       -5.56800       -0.94180
H         -2.80050       -4.92230        0.66580
H         -1.20600       -5.17550       -0.00770
H         -3.80860       -4.02760       -2.28180
H         -3.80090       -2.29420       -1.97890
H         -4.41240       -3.49620       -0.75570
H         -0.51500       -2.73760       -2.04700
H         -1.81420       -3.38140       -3.08880
H         -0.82640       -4.51740       -2.22210
H         -4.41830       -0.94020       -0.43290
H         -5.40040       -2.07920        0.49420
H         -5.24680       -0.47980        1.07820
H         -3.63710       -0.92820        3.46850
H         -3.68090        0.29750        2.33030
H         -2.10090       -0.48370        2.63510
H         -2.78250       -3.52330        2.39670
H         -4.35280       -2.88360        2.95250
H         -4.28130       -3.69330        1.43460
H          6.21870        0.44510       -2.31800
H          5.63660        1.79420       -3.22600
H          4.71990        0.25580       -3.24410
H          6.50070        1.64150       -0.52820
H          5.52040        3.01900       -0.29130
H          5.21660        1.55210        0.67910
H          4.03050        3.14270       -2.74470
H          2.59430        2.27810       -2.09580
H          3.56930        3.43660       -1.13860
H          4.54530       -2.73040        1.38500
H          4.18620       -3.66860       -0.04180
H          2.98050       -2.46850        0.57730
H          5.65750       -0.51590        1.19680
H          6.50760       -1.91200        0.57810
H          6.55710       -0.47850       -0.37860
H          5.99830       -2.95410       -1.46200
H          5.65880       -1.58070       -2.48410
H          4.47740       -2.86460       -2.26430
H          1.54290        2.95480       -4.13120
H         -0.00540        2.35730       -4.61990
H          0.50510        2.12150       -2.91990
H          1.24850       -0.55120       -6.06710
H          0.42640        0.95090       -6.22130
H         -0.27510       -0.27980       -5.16340
H          3.49400        0.20960       -5.13890
H          3.45730        1.75370       -4.27610
H          2.74890        1.62350       -5.84710
H          2.82010       -4.04360       -2.76260
H          1.21540       -4.01600       -2.33830
H          2.29540       -2.83400       -1.53640
H          0.39320       -3.79500       -4.34900
H         -0.34820       -2.17070       -4.20020
H          0.76670       -2.57560       -5.51280
H          3.82870       -1.61770       -3.95530
H          3.40410       -3.20590       -4.65040
H          2.83720       -1.78270       -5.42740
H         -1.40270        3.28640       -3.18680
H         -0.21200        4.55380       -3.61970
H         -1.78410        4.99240       -3.09520
H         -1.03250        5.54340        0.29990
H         -2.07520        5.76230       -1.08420
H         -0.48740        6.41690       -1.14090
H          1.47820        3.66980       -0.68990
H          1.39750        5.38460       -1.20890
H          1.51000        4.17560       -2.39690
H         -3.35880        2.66170       -2.44370
H         -3.44190        4.36800       -1.87170
H         -4.74740        3.28130       -1.57370
H         -3.09190        4.94480        0.60280
H         -4.60230        4.08230        0.63710
H         -3.38260        3.66470        1.77840
H         -4.36710        1.19640       -0.77030
H         -4.46050        1.70380        0.90010
H         -3.01260        0.79600        0.30480
H          1.73410        4.54470        4.11960
H          3.38070        4.44640        3.61300
H          2.60010        2.97470        4.14050
H          3.04280        2.42450        0.64810
H          3.87770        2.49070        2.21230
H          4.00160        3.88090        1.15980
H          2.46860        5.33680        0.69950
H          0.75510        5.09590        1.12970
H          1.84510        5.86500        2.24850
H          0.78150        1.95240        4.65620
H         -0.81210        2.15860        5.38840
H          0.19700        3.54810        5.19960
H         -2.85040        2.73250        3.62170
H         -2.06460        1.25870        3.85310
H         -2.22050        1.84210        2.17460
H         -1.76640        4.65610        3.88920
H         -1.38490        4.58200        2.14850
H         -0.15080        5.01460        3.32330
H         -2.04550       -1.18330       -2.97650
H         -3.10250       -0.11750       -2.03150
H         -3.97680        0.67730       -5.64420
H         -3.49880       -0.91490       -4.94070
H         -4.56230        0.21790       -3.99960
