180
mol32-C-2
C         -1.09140        6.25880        0.45840
S          0.10250        4.89000        0.54930
C         -1.09840        3.61510        0.06170
Si        -0.33890        1.89580       -0.00730
Si         1.86250        2.07780       -0.69280
C          2.76650        3.01780        0.69890
C          4.30080        2.86830        0.84180
C          4.79850        3.58930        2.10100
C          5.09660        3.36600       -0.37360
C          1.91860        3.12660       -2.28450
C          1.64970        4.65320       -2.19400
C          0.99040        5.14560       -3.49550
C          2.92460        5.47540       -1.95610
Si         2.64210       -0.08700       -1.06490
C          4.50330       -0.27290       -0.65480
C          5.39110       -1.19160       -1.53590
C          6.87400       -0.86750       -1.29960
C          5.15960       -2.68470       -1.30720
C          2.42690       -0.70540       -2.85890
C          2.64150        0.24930       -4.05490
C          2.26920       -0.46300       -5.36270
C          4.06290        0.81440       -4.16340
Si        -0.42390        1.29870        2.17800
C         -0.11130        2.90150        3.17530
C          0.45110        2.74230        4.61480
C         -0.56650        3.13730        5.69690
C          1.70460        3.61070        4.80670
C         -2.21140        0.75600        2.44310
C         -2.73880        0.67980        3.89290
C         -3.57420        1.92420        4.24100
C         -3.62080       -0.56470        4.09130
Si         0.98200       -0.48540        2.40630
C          2.65030        0.20580        2.99070
C          3.38960       -0.51590        4.13800
C          2.98500        0.04820        5.50750
C          4.90900       -0.36890        3.96580
C          0.07460       -1.60900        3.66190
C          0.70320       -2.97740        4.06480
C         -0.20580       -4.16180        3.69410
C          0.97460       -3.05090        5.57650
Si         1.30030       -1.40770        0.29860
Si        -0.71710       -1.71680       -0.80520
C         -0.60780       -2.72150       -2.43130
C          0.55120       -3.73170       -2.56560
C          0.33490       -4.99430       -1.72290
C          0.74030       -4.12690       -4.03650
C         -1.91230       -2.60460        0.38430
C         -2.73670       -3.80420       -0.14080
C         -3.20940       -4.66770        1.03750
C         -3.95700       -3.35300       -0.95520
Si        -1.53950        0.38740       -1.28550
C         -3.41830        0.32020       -0.93350
C         -4.28170        1.54600       -1.33990
C         -4.74920        2.35240       -0.12120
C         -5.52260        1.10050       -2.13400
C         -1.18070        0.86330       -3.09810
C         -2.28530        0.68590       -4.16550
C         -2.63320       -0.77770       -4.44770
C         -1.85390        1.36750       -5.47200
C          2.07240       -3.08950        0.63060
S          3.57910       -2.95050        1.63840
C          3.90480       -4.74010        1.66480
H         -0.57640        7.20480        0.72270
H         -1.49520        6.34420       -0.57190
H         -1.92080        6.08860        1.17620
H         -1.51620        3.86320       -0.93070
H         -1.94800        3.59480        0.77220
H          2.32410        2.62950        1.62150
H          2.47570        4.08410        0.66310
H          4.52900        1.80410        1.01040
H          4.42410        3.07410        3.00750
H          5.90850        3.56590        2.14910
H          4.46190        4.64820        2.11070
H          6.13160        2.96520       -0.32580
H          5.17210        4.47170       -0.38040
H          4.65000        3.02040       -1.32370
H          2.87250        2.95010       -2.81370
H          1.11540        2.69330       -2.89740
H          0.95530        4.86520       -1.36330
H          1.68480        5.01950       -4.35420
H          0.06140        4.57870       -3.71270
H          0.71520        6.21840       -3.40810
H          3.23370        5.41780       -0.90100
H          3.75210        5.13780       -2.61570
H          2.73920        6.55260       -2.15630
H          4.63500       -0.53520        0.41220
H          4.90240        0.73850       -0.81430
H          5.19500       -0.99020       -2.59880
H          7.14490       -1.03010       -0.23400
H          7.08510        0.19070       -1.56490
H          7.51790       -1.51130       -1.93650
H          4.09400       -2.93680       -1.43560
H          5.72950       -3.27230       -2.05830
H          5.51300       -2.98830       -0.30180
H          1.38630       -1.02390       -2.90010
H          3.03140       -1.61920       -3.00990
H          1.93860        1.08480       -3.96960
H          2.91270       -1.35490       -5.52220
H          1.20680       -0.78830       -5.33480
H          2.39080        0.22660       -6.22550
H          4.07490        1.65090       -4.89430
H          4.41260        1.21360       -3.19140
H          4.77190        0.04090       -4.52560
H         -1.05500        3.47900        3.18560
H          0.56420        3.53190        2.56750
H          0.72600        1.68610        4.78560
H         -0.98280        4.14870        5.50050
H         -0.08350        3.14490        6.69780
H         -1.38990        2.40910        5.75770
H          1.44530        4.68950        4.74140
H          2.16730        3.41150        5.79670
H          2.45540        3.39340        4.02880
H         -2.85650        1.41940        1.84280
H         -2.24980       -0.23590        1.99100
H         -1.88480        0.59140        4.59230
H         -4.50140        1.95690        3.62860
H         -3.85920        1.90540        5.31450
H         -3.01150        2.85600        4.04930
H         -3.04420       -1.49470        3.91860
H         -4.00840       -0.59930        5.13200
H         -4.48150       -0.54990        3.38790
H          3.27920        0.21070        2.08500
H          2.51150        1.25750        3.27600
H          3.16540       -1.59530        4.11760
H          3.27810        1.11590        5.59550
H          1.89140       -0.03220        5.65730
H          3.48580       -0.52190        6.31880
H          5.23710       -0.82240        3.00670
H          5.20180        0.70330        3.96920
H          5.44280       -0.89070        4.78870
H         -0.92240       -1.78230        3.22170
H         -0.09720       -0.98620        4.56380
H          1.66020       -3.12690        3.54290
H         -0.27800       -4.27950        2.60140
H         -1.22520       -4.02520        4.11550
H          0.21430       -5.11370        4.08390
H          1.69820       -2.28230        5.89140
H          0.03290       -2.91170        6.15020
H          1.41330       -4.03590        5.84480
H         -0.50790       -1.97860       -3.23590
H         -1.56420       -3.23480       -2.63780
H          1.48890       -3.24760       -2.24960
H          0.16250       -4.73570       -0.66000
H          1.23710       -5.64040       -1.77110
H         -0.53330       -5.57500       -2.10120
H          0.97890       -3.23190       -4.64860
H          1.58460       -4.84210       -4.13780
H         -0.18230       -4.59910       -4.43760
H         -1.27470       -2.93770        1.21590
H         -2.62740       -1.88410        0.79830
H         -2.11480       -4.45280       -0.77780
H         -2.33730       -5.08970        1.57910
H         -3.82210       -5.52000        0.67320
H         -3.81670       -4.06500        1.74710
H         -4.54340       -4.23560       -1.28860
H         -4.61770       -2.69790       -0.34740
H         -3.64410       -2.80750       -1.86270
H         -3.59040        0.06930        0.12660
H         -3.76740       -0.56740       -1.48880
H         -3.69740        2.22840       -1.98190
H         -3.88910        2.79460        0.40340
H         -5.40270        3.19200       -0.44150
H         -5.31520        1.71000        0.58740
H         -5.23430        0.50760       -3.02660
H         -6.09460        1.98630       -2.48390
H         -6.18490        0.47250       -1.49970
H         -0.26460        0.35090       -3.43060
H         -0.94580        1.94080       -3.06370
H         -3.20140        1.20060       -3.83780
H         -1.79210       -1.29350       -4.95670
H         -2.88550       -1.30800       -3.51240
H         -3.52150       -0.83100       -5.11240
H         -0.91720        0.91290       -5.86140
H         -1.67990        2.45180       -5.30190
H         -2.64920        1.26630       -6.24150
H          1.32980       -3.70420        1.16550
H          2.32580       -3.60780       -0.30310
H          3.06310       -5.27350        2.15390
H          4.83320       -4.92920        2.24120
H          4.04020       -5.11830        0.63010
