144
mol31-D-0
C         -5.35430        2.89520       -0.79650
S         -3.66300        2.50780       -1.34650
C         -3.28530        1.40770        0.05410
Si        -1.54770        0.60390        0.09900
Si        -0.10180        1.74050       -1.36880
C         -0.30810        3.67660       -1.54220
C         -0.79900        4.20240       -2.89820
C         -1.14690        4.33070       -0.43200
C         -0.38530        0.96080       -3.12170
C         -1.80250        1.08080       -3.68340
C          0.61790        1.35690       -4.22470
Si         2.04590        1.22200       -0.54090
C          3.24070        1.32390       -2.05410
C          3.53590        2.76470       -2.48260
C          4.55580        0.56150       -1.95580
C          2.60460        2.43610        0.86310
C          2.38550        3.92910        0.59960
C          4.04140        2.23950        1.34000
Si        -0.89440        0.75570        2.38840
C         -0.56330        2.64770        2.77050
C          0.35610        2.95620        3.95350
C         -1.80760        3.53500        2.96320
C         -2.31860        0.20350        3.59700
C         -3.73310        0.68920        3.26780
C         -2.04170        0.52680        5.06920
Si         0.99120       -0.72380        2.62380
C          2.32150       -0.08380        3.89980
C          3.62790       -0.88470        3.99780
C          1.78460        0.06950        5.32510
C          0.52400       -2.53400        3.17150
C         -0.55900       -2.67200        4.25820
C          1.71610       -3.39070        3.61420
Si         1.92420       -0.90940        0.45180
Si         0.64470       -2.37480       -0.89430
C          1.35230       -2.22800       -2.71690
C          0.38400       -2.68090       -3.81640
C          2.69160       -2.92990       -2.99710
C          0.85390       -4.24490       -0.37320
C          2.25960       -4.70280        0.03260
C          0.30220       -5.24460       -1.39670
Si        -1.63660       -1.67430       -0.56690
C         -2.47030       -2.61500        0.90720
C         -2.26960       -4.14220        0.96530
C         -3.96430       -2.32910        1.08580
C         -2.78350       -1.93460       -2.12480
C         -4.18370       -1.30780       -2.06820
C         -2.94690       -3.39850       -2.53560
C          3.62470       -1.79420        0.51710
S          5.12980       -0.82670        0.86330
C          6.26280       -2.24860        0.76970
H         -5.32890        3.38890        0.19730
H         -5.95970        1.96660       -0.74050
H         -5.82240        3.58530       -1.52770
H         -3.40500        2.00900        0.95260
H         -4.07380        0.65250        0.10920
H          0.71730        4.07220       -1.47250
H         -0.67590        5.30680       -2.92800
H         -1.87650        3.99930       -3.04400
H         -0.21370        3.80630       -3.74270
H         -0.58270        5.13500        0.08200
H         -1.46410        3.57960        0.29320
H         -2.07330        4.80750       -0.81730
H         -0.26850       -0.10400       -2.91540
H         -2.03220        2.09180       -4.05820
H         -1.92250        0.38480       -4.54180
H         -2.53570        0.78850       -2.93040
H          1.28320        2.17270       -3.90450
H          1.22440        0.48020       -4.53230
H          0.11480        1.71790       -5.14790
H          2.71260        0.82300       -2.87250
H          2.61530        3.37520       -2.51590
H          3.97740        2.77200       -3.50230
H          4.26480        3.23770       -1.79240
H          4.36380       -0.50250       -1.76080
H          5.09010        0.60740       -2.92930
H          5.22810        0.99510       -1.19490
H          1.96890        2.16390        1.71440
H          2.84460        4.26440       -0.34550
H          1.31970        4.16380        0.61150
H          2.81340        4.54550        1.41880
H          4.76050        2.31210        0.50480
H          4.12470        1.28570        1.87380
H          4.32190        3.00570        2.09400
H         -0.05430        3.01690        1.87340
H          0.54310        4.05040        4.01320
H         -0.10820        2.65240        4.91090
H          1.34360        2.51000        3.83520
H         -1.50820        4.60510        2.93160
H         -2.55930        3.42090        2.18010
H         -2.28820        3.36420        3.94480
H         -2.38150       -0.88410        3.51480
H         -4.07590        0.27410        2.31470
H         -3.81440        1.78890        3.25690
H         -4.45130        0.31350        4.02830
H         -1.02920        0.23900        5.36230
H         -2.73980       -0.04400        5.71860
H         -2.18300        1.60110        5.28920
H          2.63020        0.90520        3.53730
H          4.47570       -0.19970        4.21540
H          3.85290       -1.40810        3.07590
H          3.60820       -1.63810        4.81150
H          1.41160       -0.89750        5.71680
H          2.58980        0.42850        6.00240
H          0.99490        0.81950        5.37680
H          0.13880       -2.99450        2.25220
H         -0.53930       -1.82620        4.95780
H         -1.56180       -2.81060        3.82250
H         -0.41810       -3.58850        4.87210
H          1.98870       -3.17550        4.66740
H          2.59630       -3.24730        2.98560
H          1.44500       -4.46690        3.55230
H          1.56860       -1.15970       -2.86580
H          0.82420       -2.49620       -4.81980
H         -0.54300       -2.11010       -3.80770
H          0.16150       -3.76130       -3.74160
H          2.97390       -2.80300       -4.06460
H          3.52470       -2.47740       -2.45350
H          2.64430       -4.01590       -2.81060
H          0.26130       -4.37270        0.53560
H          2.32310       -5.81200        0.06230
H          3.04170       -4.35300       -0.65890
H          2.47520       -4.38780        1.06250
H         -0.69000       -4.95360       -1.74930
H          0.18960       -6.24420       -0.92430
H          0.97520       -5.36180       -2.26640
H         -1.96300       -2.17490        1.77280
H         -1.97360       -4.55090       -0.00920
H         -1.53250       -4.41570        1.74370
H         -3.19290       -4.68580        1.26190
H         -4.22160       -1.30660        0.81040
H         -4.58130       -3.01660        0.47020
H         -4.24990       -2.48070        2.14900
H         -2.29320       -1.42510       -2.95750
H         -4.86260       -1.83750       -1.37940
H         -4.14670       -0.24530       -1.82030
H         -4.65240       -1.35770       -3.07490
H         -1.99710       -3.80110       -2.90600
H         -3.34730       -4.00850       -1.70310
H         -3.65400       -3.48910       -3.38820
H          3.79130       -2.28700       -0.43530
H          3.59300       -2.59520        1.25350
H          5.99330       -3.00300        1.53810
H          7.29800       -1.89840        0.95860
H          6.21770       -2.70690       -0.24010
