60
mol37-C-1
C         -5.70900        0.36530        0.55940
S         -4.65020        0.84040       -0.84500
C         -3.48270       -0.55370       -0.68230
Si        -2.15710       -0.45470       -1.99800
Si        -3.15860       -0.48000       -3.98810
C         -4.36530       -1.83280       -4.04100
C         -5.16180       -2.73610       -4.07320
C         -3.99540        1.10810       -4.24730
C         -4.54330        2.16730       -4.41820
Si        -1.62390       -0.78300       -5.57670
C         -2.02680        0.24350       -7.01640
C         -2.29230        0.93150       -7.96900
C         -1.58160       -2.53220       -6.05420
C         -1.55100       -3.69620       -6.36300
Si        -0.71500       -2.16310       -1.91710
C         -1.56760       -3.67500       -2.44200
C         -2.13730       -4.67490       -2.79770
C         -0.05240       -2.37410       -0.24170
C          0.39290       -2.50920        0.86960
Si         0.99320       -1.74090       -3.29540
C          2.39320       -1.09970       -2.33660
C          3.31790       -0.66540       -1.69840
C          1.47730       -3.26080       -4.15780
C          1.79360       -4.26990       -4.73460
Si         0.37500       -0.20000       -4.78420
Si         0.16460        1.75820       -3.72270
C          1.78860        2.43270       -3.27760
C          2.86710        2.87670       -2.97580
C         -0.71430        2.91900       -4.80360
C         -1.30430        3.68380       -5.52340
Si        -1.00130        1.44590       -1.84140
C         -2.14160        2.83280       -1.58770
C         -2.90310        3.75160       -1.42380
C          0.14380        1.32060       -0.44010
C          0.90710        1.22860        0.48710
C          1.56860       -0.12780       -6.22220
S          3.24550        0.30010       -5.64030
C          4.03150        0.26040       -7.28330
H         -5.10440        0.27660        1.48580
H         -6.20820       -0.60250        0.34480
H         -6.48330        1.14510        0.70910
H         -2.99730       -0.58940        0.31500
H         -4.04280       -1.50010       -0.82720
H         -5.86020       -3.53040       -4.10100
H         -5.02190        3.09900       -4.56750
H         -2.52510        1.53700       -8.80480
H         -1.52280       -4.71920       -6.63130
H         -2.63870       -5.55180       -3.11260
H          0.78280       -2.62590        1.84620
H          4.12870       -0.28120       -1.13750
H          2.07000       -5.15630       -5.24210
H          3.81530        3.26480       -2.71150
H         -1.82460        4.35350       -6.15600
H         -3.57290        4.55830       -1.28110
H          1.57840        1.14490        1.30070
H          1.60490       -1.13220       -6.69130
H          1.18200        0.59050       -6.97450
H          3.51110        0.95270       -7.97700
H          5.08990        0.57780       -7.18600
H          4.00030       -0.77120       -7.69150
