108
mol30-B-1
C          0.06950        5.49320        3.56420
S          0.45880        4.46060        2.11730
C         -0.47980        3.01850        2.70810
Si        -0.39150        1.58250        1.49410
Si        -1.55360       -0.20500        2.31720
C         -3.23240        0.47190        2.84790
C         -4.02150       -0.47030        3.74390
C         -0.62390       -0.77880        3.86430
C         -0.98780       -2.15470        4.40350
Si        -1.82930       -1.71790        0.63260
C         -1.55350       -3.52710        1.10280
C         -2.69020       -4.11540        1.93260
C         -3.61470       -1.59810        0.03350
C         -3.92230       -2.50580       -1.15160
Si        -1.31400        2.30680       -0.44870
C         -0.60070        3.99630       -0.90000
C         -1.44800        4.74140       -1.92990
C         -3.18220        2.55520       -0.32160
C         -3.59460        3.55370        0.75470
Si        -0.92570        0.73630       -2.04480
C          0.44850        1.17210       -3.27270
C          0.18530        2.42200       -4.10300
C         -2.53470        0.58800       -3.01710
C         -2.41290       -0.30060       -4.24910
Si        -0.33920       -1.20970       -0.99650
Si         1.70760       -0.97160       -0.01890
C          3.03870       -1.10100       -1.35130
C          4.45810       -1.07470       -0.79910
C          2.01540       -2.29670        1.28530
C          2.18180       -3.69340        0.69970
Si         1.77080        1.01660        1.05640
C          2.78300        0.92040        2.65230
C          4.27140        0.69480        2.41630
C          2.60390        2.28500       -0.05890
C          2.77080        3.64510        0.60680
C         -0.31090       -2.68890       -2.16530
S          0.70410       -2.38060       -3.64340
C          0.40180       -4.01890       -4.37520
H         -1.02790        5.63940        3.64440
H          0.45380        5.01480        4.48910
H          0.55550        6.48290        3.44340
H         -1.53640        3.30430        2.86330
H         -0.06100        2.69750        3.67860
H         -3.06970        1.42210        3.39650
H         -3.83340        0.68250        1.94470
H         -3.54930       -0.53150        4.74570
H         -5.04910       -0.07230        3.87820
H         -4.09600       -1.47820        3.29000
H         -0.81950       -0.03730        4.66420
H          0.45500       -0.77050        3.64800
H         -0.48970       -2.29980        5.38520
H         -0.61960       -2.94880        3.73270
H         -2.07560       -2.26030        4.56080
H         -0.60240       -3.63680        1.64700
H         -1.46380       -4.12000        0.17000
H         -2.91760       -3.47940        2.80620
H         -3.60910       -4.22390        1.32210
H         -2.39740       -5.12280        2.29600
H         -3.84190       -0.55930       -0.24480
H         -4.28290       -1.86950        0.87580
H         -5.01530       -2.49690       -1.34560
H         -3.61070       -3.55130       -0.95540
H         -3.41510       -2.13830       -2.06160
H         -0.53830        4.61340        0.01940
H          0.42190        3.87720       -1.29430
H         -0.87020        5.59930       -2.33320
H         -2.37130        5.14080       -1.46370
H         -1.73490        4.07830       -2.77110
H         -3.67750        1.59300       -0.13050
H         -3.54830        2.91830       -1.30370
H         -4.65920        3.83210        0.60780
H         -2.98180        4.47640        0.71450
H         -3.50310        3.10090        1.75770
H          1.40950        1.28020       -2.74640
H          0.55550        0.32570       -3.97460
H          0.38620        3.33210       -3.51080
H          0.87910        2.43640       -4.96990
H         -0.85260        2.44050       -4.49250
H         -2.83840        1.60450       -3.34230
H         -3.33100        0.20070       -2.35640
H         -3.39760       -0.35720       -4.75840
H         -2.11030       -1.32590       -3.96820
H         -1.67600        0.11660       -4.96540
H          2.89620       -2.06080       -1.88600
H          2.91750       -0.27610       -2.07840
H          4.60370       -1.86500       -0.03500
H          4.69050       -0.08650       -0.36130
H          5.17520       -1.25670       -1.62690
H          1.17970       -2.28870        2.00720
H          2.93660       -2.04100        1.84320
H          1.24960       -4.02940        0.21210
H          2.41590       -4.40670        1.51750
H          3.01200       -3.72140       -0.03470
H          2.66440        1.87780        3.19610
H          2.40630        0.10590        3.29470
H          4.45040       -0.30090        1.96950
H          4.80440        0.73060        3.38970
H          4.69770        1.48170        1.76200
H          3.60200        1.91190       -0.35590
H          2.01170        2.39840       -0.97700
H          3.36730        3.56240        1.53800
H          1.78580        4.08910        0.83900
H          3.30120        4.32990       -0.08750
H          0.09700       -3.56470       -1.63080
H         -1.34260       -2.93560       -2.47190
H          0.95010       -4.09200       -5.33660
H          0.76540       -4.81490       -3.69250
H         -0.68250       -4.15540       -4.56910
