84
mol36-E-1
C          1.40020        2.64590       -4.84710
S          0.73780        1.28370       -3.83930
C          1.05730        2.11100       -2.25040
Si         0.51590        1.04880       -0.80310
Si        -1.72080        1.05470       -0.82820
C         -2.31330        0.20510       -2.35920
C         -2.16940        0.76430       -3.56060
C         -2.30940        2.80840       -0.83650
C         -3.60500        3.10670       -0.92790
Si        -2.51810       -0.01130        0.97100
C         -3.77260       -1.27550        0.47190
C         -4.89990       -0.92970       -0.14920
C         -3.31170        1.21520        2.10410
C         -4.09300        0.82450        3.11100
Si         1.18660       -1.07490       -1.04810
C          0.66630       -1.65820       -2.72530
C          0.96120       -2.88320       -3.15940
C          3.02870       -1.21110       -0.93270
C          3.81900       -0.79360       -1.92080
Si         0.21990       -2.33770        0.54110
C          1.50020       -3.39030        1.36410
C          2.16980       -4.32390        0.68890
C         -1.03760       -3.44210       -0.24400
C         -1.61110       -4.43130        0.44110
Si        -0.84070       -1.03460        2.03560
Si         0.49700        0.56320        2.85380
C          1.93390       -0.16990        3.76060
C          2.91850       -0.80070        3.12510
C         -0.46150        1.55790        4.08240
C          0.09590        2.57820        4.73440
Si         1.19710        1.87700        1.17080
C          3.04340        1.96610        1.22960
C          3.67400        2.59130        2.22340
C          0.48110        3.57120        1.36310
C          0.87990        4.58380        0.59350
C         -1.59880       -2.03160        3.42620
S         -0.30640       -2.84220        4.41810
C         -1.47910       -3.63300        5.56260
H          0.82060        3.57420       -4.66170
H          2.46970        2.81510       -4.60360
H          1.31430        2.37710       -5.91980
H          0.50350        3.07130       -2.20990
H          2.14380        2.31140       -2.15160
H         -2.77650       -0.77190       -2.27410
H         -2.51720        0.24260       -4.44590
H         -1.70870        1.74070       -3.67330
H         -1.57990        3.60770       -0.77540
H         -3.92280        4.14400       -0.93360
H         -4.35600        2.32770       -0.99980
H         -3.59090       -2.31740        0.70850
H         -5.11390        0.10670       -0.38620
H         -5.62230       -1.69080       -0.42420
H         -3.12490        2.27230        1.94910
H         -4.29650       -0.22690        3.28800
H         -4.53960        1.56340        3.76780
H          0.12990       -0.97730       -3.37520
H          0.65170       -3.19550       -4.15120
H          1.51200       -3.58070       -2.53820
H          3.47240       -1.67450       -0.06020
H          3.40440       -0.36030       -2.82530
H          4.89550       -0.89740       -1.83460
H          1.70820       -3.24690        2.41650
H          1.98090       -4.49840       -0.36430
H          2.91640       -4.92720        1.19460
H         -1.31990       -3.27110       -1.27700
H         -2.35360       -5.06160       -0.03660
H         -1.34730       -4.62270        1.47670
H          1.97080       -0.07170        4.84040
H          3.74780       -1.21880        3.68530
H          2.90920       -0.89700        2.04780
H         -1.48750        1.28390        4.29680
H         -0.48340        3.13830        5.46080
H          1.12670        2.86400        4.55150
H          3.62060        1.47560        0.45440
H          4.75830        2.61720        2.24540
H          3.12070        3.07960        3.01900
H         -0.29140        3.73660        2.10570
H          1.64790        4.44720       -0.16050
H          0.43570        5.56560        0.71730
H         -2.18160       -1.34530        4.07360
H         -2.27940       -2.79150        2.99100
H         -2.08060       -2.86120        6.08640
H         -2.15060       -4.31940        5.00600
H         -0.91160       -4.21790        6.31490
