108
mol30-E-0
C          5.47280        2.41190       -1.32850
S          3.65480        2.40960       -1.40480
C          3.47050        0.84260       -0.49840
Si         1.66260        0.35280       -0.28990
Si         0.79990       -0.27250       -2.29990
C          1.58140       -1.86960       -2.93870
C          3.08020       -1.76650       -3.18620
C          1.14550        1.09350       -3.55600
C          0.66310        0.75030       -4.95750
Si        -1.42860       -0.64170       -2.05730
C         -1.94310       -2.26230       -2.89790
C         -1.76490       -2.29500       -4.41530
C         -2.45450        0.82460       -2.66940
C         -3.35960        0.51860       -3.85290
Si         0.39110        2.04590        0.55620
C          1.14380        2.83440        2.09440
C          2.45740        3.55960        1.82040
C          0.15840        3.35490       -0.78960
C         -0.34290        4.70990       -0.29700
Si        -1.60140        1.17730        1.16940
C         -2.99560        2.34040        0.65470
C         -3.21050        3.48580        1.64310
C         -1.64380        1.05430        3.05200
C         -2.93030        0.43710        3.58740
Si        -1.86140       -0.84250        0.16420
Si        -0.43460       -2.36240        1.09350
C         -0.47650       -3.95900        0.07780
C          0.18350       -5.16510        0.73930
C         -0.87570       -2.76690        2.88090
C         -2.20860       -3.49550        3.01410
Si         1.62890       -1.42890        1.11120
C          2.03530       -0.94340        2.88960
C          3.38910       -0.26020        3.03940
C          2.92710       -2.67520        0.55090
C          3.35520       -3.62440        1.66890
C         -3.68650       -1.26360        0.33780
S         -4.03220       -2.99740       -0.09410
C         -5.81900       -2.87440        0.22630
H          5.85540        3.31290       -1.85000
H          5.80960        2.43880       -0.27120
H          5.87700        1.50760       -1.82940
H          4.00450        0.04810       -1.04650
H          3.94360        0.93230        0.49460
H          1.09380       -2.14820       -3.89140
H          1.38960       -2.68280       -2.22110
H          3.41560       -2.64980       -3.76920
H          3.33320       -0.85360       -3.76280
H          3.62930       -1.77650       -2.22750
H          0.66060        2.03130       -3.23170
H          2.23830        1.26900       -3.59580
H          0.94030        1.57090       -5.65180
H         -0.43830        0.64740       -4.97090
H          1.13610       -0.18570       -5.31970
H         -1.34140       -3.07770       -2.46330
H         -3.00610       -2.46670       -2.66330
H         -0.94230       -1.63920       -4.75100
H         -1.53850       -3.33240       -4.74030
H         -2.70140       -1.99080       -4.92460
H         -1.78270        1.66140       -2.93820
H         -3.10730        1.14570       -1.83940
H         -2.75990        0.32030       -4.76250
H         -4.00110        1.40120       -4.05910
H         -4.02210       -0.34280       -3.62600
H          0.41000        3.56080        2.50130
H          1.30340        2.05620        2.86480
H          3.25600        2.84200        1.56250
H          2.35290        4.29020        0.99350
H          2.77140        4.10630        2.73400
H          1.12930        3.51320       -1.29320
H         -0.55780        2.96680       -1.53490
H         -0.19830        5.46300       -1.09990
H         -1.42350        4.67450       -0.07720
H          0.20550        5.05680        0.59960
H         -2.75490        2.76630       -0.33760
H         -3.93720        1.76010        0.56640
H         -3.85070        4.26240        1.17430
H         -3.72480        3.12770        2.55670
H         -2.24650        3.94950        1.93800
H         -1.53100        2.07480        3.47190
H         -0.78690        0.46060        3.40380
H         -3.82790        0.90770        3.13900
H         -2.97270        0.57150        4.68850
H         -2.95220       -0.64600        3.37700
H         -1.53360       -4.21250       -0.12570
H          0.02630       -3.78370       -0.88570
H         -0.14630       -6.08920        0.21950
H         -0.08970       -5.25830        1.80790
H          1.28170       -5.11150        0.63690
H         -0.90110       -1.83560        3.47510
H         -0.07160       -3.40450        3.30270
H         -3.04240       -2.85500        2.67280
H         -2.38230       -3.75020        4.08050
H         -2.21300       -4.43460        2.42480
H          2.02350       -1.86220        3.51120
H          1.25370       -0.27220        3.27780
H          3.67200       -0.23560        4.11270
H          4.18230       -0.79280        2.47740
H          3.33030        0.78360        2.68390
H          3.82090       -2.12480        0.19300
H          2.52010       -3.26150       -0.29470
H          3.90410       -4.48530        1.23300
H          4.03360       -3.11160        2.37990
H          2.47970       -4.00670        2.23280
H         -4.01320       -1.06930        1.37570
H         -4.25990       -0.59740       -0.33890
H         -6.27330       -2.10770       -0.43520
H         -6.29210       -3.85540        0.01700
H         -5.99800       -2.60870        1.28900
