180
mol33-D-1
C         -5.17610        3.56870        1.71940
S         -4.14320        2.86020        0.39860
C         -3.03950        1.97420        1.52380
Si        -1.62440        0.94850        0.80060
Si        -0.91080       -0.50400        2.82030
C         -2.14740       -1.79270        3.84170
C         -2.35720       -3.08570        3.02610
C         -3.55100       -1.20200        4.19850
C         -1.53630       -2.24530        5.20590
C         -0.56750        0.78140        4.38290
C          0.33740        0.26900        5.54020
C         -1.87320        1.22710        5.10000
C          0.09560        2.06070        3.86840
Si         0.94950       -1.84460        1.77970
C          2.65880       -1.45200        2.82860
C          2.75980        0.06480        3.06930
C          2.63600       -2.12860        4.23190
C          3.99210       -1.93780        2.16020
C          1.01290       -3.88690        1.97590
C          0.68260       -4.44690        3.38740
C          2.39070       -4.52560        1.63190
C          0.01450       -4.51780        1.00850
Si        -3.11720       -0.17220       -1.01640
C         -4.87750       -0.67690       -0.05550
C         -5.74850       -1.78040       -0.72640
C         -4.56560       -1.16950        1.35400
C         -5.88460        0.49900        0.13640
C         -4.04060        0.79370       -2.59850
C         -4.76850        2.13300       -2.23660
C         -5.11650       -0.13260       -3.24980
C         -3.08730        1.13910       -3.74750
Si        -1.57710       -1.99030       -1.87090
C         -2.44220       -3.78320       -1.45710
C         -1.46630       -5.00380       -1.55390
C         -3.02800       -3.72770       -0.03220
C         -3.62110       -4.11410       -2.42670
C         -1.30140       -2.34660       -3.88770
C         -0.69570       -3.74550       -4.20940
C         -0.28930       -1.35960       -4.44360
C         -2.56340       -2.25600       -4.79510
Si         0.65490       -1.31380       -0.73180
Si         1.58870        0.96230       -1.41830
C          1.40600        1.53070       -3.31870
C          1.99640        0.63220       -4.45450
C         -0.08340        1.61960       -3.50250
C          1.99140        2.93390       -3.57720
C          3.61930        0.94870       -1.28220
C          4.31930        0.28160       -2.48930
C          4.31760        2.33260       -1.18740
C          4.03890        0.12450       -0.06720
Si         0.17000        2.58760       -0.09350
C          1.46530        3.71750        1.02630
C          0.82040        4.56320        2.16930
C          2.23780        4.73570        0.14220
C          2.54720        2.83860        1.66450
C         -0.86190        4.15380       -0.96990
C         -0.19530        4.92010       -2.16600
C         -1.22490        5.30640        0.00930
C         -2.21570        3.64000       -1.45970
C          1.91660       -2.61620       -1.29660
S          2.33460       -2.75920       -3.05480
C          3.51900       -4.12180       -2.82260
H         -4.55940        4.20820        2.38470
H         -5.64990        2.75730        2.31040
H         -5.97180        4.19030        1.26080
H         -3.67000        1.28770        2.08840
H         -2.60770        2.71540        2.21090
H         -1.63580       -3.09350        2.22080
H         -2.23980       -4.03340        3.58970
H         -3.35980       -3.20530        2.60820
H         -4.38840       -1.89480        3.97650
H         -3.71460       -0.99080        5.27290
H         -3.72540       -0.25280        3.68350
H         -1.83300       -1.61960        6.06330
H         -1.88590       -3.24810        5.53120
H         -0.44310       -2.26190        5.18130
H          1.20230       -0.25300        5.16740
H         -0.15620       -0.36170        6.29120
H          0.71210        1.11390        6.16050
H         -2.23740        0.49160        5.83040
H         -1.71320        2.13380        5.72430
H         -2.68320        1.45000        4.40020
H         -0.40820        2.98900        4.20270
H          1.11730        2.18400        4.27100
H          0.12570        2.05320        2.77430
H          1.83170        0.52730        2.72840
H          3.60640        0.54190        2.55620
H          2.94530        0.37230        4.11630
H          1.61510       -2.24910        4.60680
H          3.22890       -1.57310        4.98950
H          3.10450       -3.12650        4.25330
H          4.50570       -2.76710        2.68460
H          3.82990       -2.28210        1.13620
H          4.79300       -1.17210        2.15230
H          0.31440       -5.49560        3.34620
H          1.54280       -4.52370        4.07000
H         -0.07100       -3.85470        3.87520
H          3.13470       -4.39470        2.42880
H          2.30370       -5.63280        1.55530
H          2.81060       -4.18210        0.67700
H         -0.79920       -5.07470        1.51490
H         -0.43740       -3.72420        0.40660
H          0.47900       -5.26520        0.33160
H         -6.52820       -1.40750       -1.41070
H         -6.35230       -2.36170        0.00440
H         -5.14110       -2.47400       -1.27280
H         -4.83880       -2.22610        1.51190
H         -5.15650       -0.63810        2.12740
H         -3.50050       -1.04550        1.56930
H         -6.38890        0.79600       -0.79170
H         -6.73400        0.18220        0.78340
H         -5.45680        1.38090        0.62670
H         -4.62960        2.40410       -1.18750
H         -5.86050        2.12870       -2.42990
H         -4.44400        2.99730       -2.85050
H         -4.87630       -1.19120       -3.11090
H         -5.24390        0.01730       -4.34310
H         -6.13650        0.04350       -2.87060
H         -2.53930        2.06630       -3.57770
H         -3.61160        1.34870       -4.70480
H         -2.41470        0.31370       -3.91530
H         -1.59800       -5.73930       -0.73570
H         -1.60860       -5.65580       -2.43440
H         -0.41860       -4.67660       -1.58420
H         -4.12510       -3.81280        0.02310
H         -2.73280       -2.78180        0.42630
H         -2.71600       -4.55600        0.62350
H         -4.42500       -4.70500       -1.93720
H         -4.05980       -3.20940       -2.85830
H         -3.34810       -4.74490       -3.28880
H         -1.44160       -4.54890       -4.22860
H          0.12110       -4.02080       -3.53510
H         -0.29020       -3.80000       -5.24360
H          0.34360       -1.07110       -3.60860
H          0.37640       -1.76430       -5.23650
H         -0.75800       -0.48910       -4.93040
H         -3.26960       -1.50560       -4.46260
H         -2.29010       -2.00800       -5.84500
H         -3.12210       -3.20510       -4.88670
H          2.90370        1.04040       -4.94200
H          2.26960       -0.36330       -4.10940
H          1.31190        0.53850       -5.32140
H         -0.38710        1.78730       -4.55890
H         -0.47490        2.42420       -2.91370
H         -0.57120        0.75610       -3.03780
H          3.05780        2.91380       -3.87400
H          1.92430        3.54260       -2.68020
H          1.46850        3.44650       -4.41420
H          4.33460        0.93570       -3.37480
H          3.89920       -0.70460       -2.70660
H          5.39820        0.10380       -2.27790
H          4.15640        2.84120       -0.24430
H          4.06290        3.01810       -2.00210
H          5.42360        2.21480       -1.23060
H          4.60010       -0.79650       -0.33430
H          4.70340        0.68800        0.62170
H          3.13870       -0.19440        0.46810
H          0.78990        5.65270        1.97140
H         -0.20130        4.24710        2.36510
H          1.37750        4.50950        3.12870
H          1.66980        5.64920       -0.08190
H          3.14140        5.13560        0.65140
H          2.55880        4.28920       -0.80100
H          2.37350        2.62470        2.71250
H          3.54630        3.31570        1.73860
H          2.62010        1.90690        1.10930
H         -0.23410        4.41870       -3.14190
H         -0.75410        5.85750       -2.38490
H          0.82920        5.25360       -1.97840
H         -0.39540        5.99790        0.20690
H         -2.00480        5.97020       -0.42960
H         -1.65720        4.94860        0.93990
H         -2.20600        2.54660       -1.50050
H         -2.48140        4.05000       -2.45730
H         -3.05290        3.93500       -0.79580
H          1.52650       -3.59730       -0.99500
H          2.85620       -2.40680       -0.77010
H          3.93690       -4.40860       -3.80900
H          3.00710       -5.00150       -2.37970
H          4.34930       -3.79720       -2.16130
