180
mol32-B-2
C         -5.17490       -3.75240        0.05970
S         -4.45850       -2.13330       -0.35930
C         -2.80060       -2.53470        0.26640
Si        -1.53210       -1.13870        0.09010
Si        -0.79850       -0.81930        2.24730
C         -2.32060       -0.76000        3.40500
C         -2.05850       -0.51810        4.91310
C         -3.18830        0.32590        5.52550
C         -1.91850       -1.82240        5.70470
C          0.39070       -2.22770        2.74930
C         -0.04310       -3.68030        2.43160
C          1.17360       -4.62110        2.46710
C         -1.10680       -4.23630        3.38400
Si         0.27170        1.21350        2.32850
C          1.95210        0.97410        3.19430
C          2.03600        1.04510        4.74680
C          3.37240        1.68000        5.17540
C          1.92730       -0.33180        5.41190
C         -0.84470        2.39240        3.33570
C         -0.50010        3.89130        3.32730
C          0.66550        4.23820        4.25940
C         -1.72640        4.71490        3.75330
Si         0.27230       -1.51930       -1.33900
C         -0.22930       -1.55400       -3.18270
C         -1.36300       -2.50260       -3.61590
C         -1.92460       -2.06060       -4.97800
C         -0.91100       -3.96140       -3.72620
C          1.18320       -3.11640       -0.84180
C          2.06080       -3.86100       -1.88990
C          3.54150       -3.46860       -1.81430
C          1.96120       -5.38400       -1.67780
Si         1.70860        0.25010       -1.06760
C          2.12730        0.90420       -2.81420
C          2.90650       -0.02990       -3.77520
C          4.42570        0.12830       -3.66070
C          2.48440        0.23330       -5.23080
C          3.27560       -0.28870       -0.11820
C          4.18750        0.82850        0.44430
C          5.12370        0.26210        1.52480
C          5.04040        1.53020       -0.61750
Si         0.61540        1.90490        0.11660
Si        -1.35300        2.44300       -0.95090
C         -2.11270        4.02420       -0.22390
C         -1.53590        5.39850       -0.68410
C         -0.89340        6.18860        0.46340
C         -2.63830        6.27570       -1.30620
C         -0.97880        2.62470       -2.81440
C         -1.69470        3.67210       -3.70560
C         -3.21200        3.49580       -3.79220
C         -1.09840        3.62660       -5.12060
Si        -2.77280        0.68000       -0.58770
C         -3.63770        0.24060       -2.21640
C         -4.99370       -0.51200       -2.12530
C         -4.96640       -1.86360       -2.85110
C         -6.13260        0.33440       -2.72330
C         -4.01620        1.10030        0.79830
C         -5.19310        2.06920        0.48330
C         -5.21080        3.26830        1.45280
C         -6.56070        1.37230        0.62050
C          1.70550        3.42750       -0.16650
S          2.44550        4.11900        1.34160
C          3.31670        5.46370        0.47950
H         -4.64940       -4.55660       -0.49640
H         -5.09480       -3.93470        1.15170
H         -6.24610       -3.75820       -0.22760
H         -2.86920       -2.82760        1.32690
H         -2.43620       -3.41770       -0.28440
H         -2.91870        0.07740        3.03130
H         -2.97020       -1.64200        3.26720
H         -1.12360        0.04630        5.04240
H         -4.16180       -0.20230        5.43450
H         -2.98510        0.52580        6.59940
H         -3.26430        1.30710        5.01000
H         -2.78600       -2.49320        5.52710
H         -1.85460       -1.60960        6.79330
H         -0.98280       -2.33670        5.42970
H          1.33210       -2.01110        2.20830
H          0.62420       -2.16450        3.82010
H         -0.47130       -3.70560        1.42230
H          1.98030       -4.27300        1.79370
H          1.58990       -4.67900        3.49590
H          0.87870       -5.64150        2.14110
H         -1.42570       -5.24400        3.04150
H         -0.70480       -4.33740        4.41330
H         -2.00710       -3.60320        3.39450
H          2.57600        1.78570        2.79430
H          2.38190        0.02390        2.83400
H          1.22360        1.67700        5.14990
H          3.48930        2.69680        4.74740
H          3.41920        1.77750        6.28120
H          4.22600        1.05570        4.83270
H          2.18620       -0.26760        6.49060
H          0.89250       -0.69610        5.37080
H          2.60910       -1.06590        4.93140
H         -0.89860        2.06510        4.38650
H         -1.85570        2.26550        2.91780
H         -0.22730        4.17020        2.30010
H          0.42630        3.97140        5.31100
H          0.88360        5.32630        4.20960
H          1.57890        3.70770        3.94990
H         -2.58000        4.53820        3.06890
H         -1.49050        5.80020        3.73250
H         -2.04170        4.43970        4.78300
H         -0.53530       -0.51960       -3.41410
H          0.65020       -1.77190       -3.80990
H         -2.16790       -2.44390       -2.86940
H         -2.29700       -1.01610       -4.93830
H         -2.77210       -2.71390       -5.27630
H         -1.13740       -2.11910       -5.76050
H         -1.75940       -4.60150       -4.04980
H         -0.08550       -4.06810       -4.46190
H         -0.57920       -4.33410       -2.74520
H          1.77870       -2.88890        0.05850
H          0.37860       -3.80100       -0.53740
H          1.70750       -3.64030       -2.91420
H          3.69680       -2.47090       -2.24440
H          3.91230       -3.49430       -0.76720
H          4.16240       -4.16130       -2.42200
H          2.53950       -5.92310       -2.45850
H          2.35970       -5.66280       -0.67810
H          0.91080       -5.73370       -1.74270
H          1.14070        1.06800       -3.26590
H          2.60640        1.90020       -2.76710
H          2.66360       -1.07970       -3.55120
H          4.72500        1.19350       -3.75800
H          4.93700       -0.45400       -4.45680
H          4.78110       -0.27990       -2.70090
H          1.39480        0.05870       -5.35970
H          2.71410        1.28180       -5.51900
H          3.01720       -0.45560       -5.92070
H          2.90110       -0.90000        0.72580
H          3.88840       -0.95600       -0.73690
H          3.55590        1.59560        0.90620
H          5.82370       -0.47950        1.08300
H          5.71390        1.08140        1.98850
H          4.55580       -0.24190        2.33100
H          5.80670        0.84190       -1.03040
H          4.41630        1.92670       -1.43440
H          5.56860        2.39470       -0.16110
H         -3.18280        3.96680       -0.49720
H         -2.05260        3.91960        0.87250
H         -0.73870        5.24960       -1.43370
H          0.04070        5.70550        0.79480
H         -0.61140        7.20780        0.12200
H         -1.59690        6.28900        1.31540
H         -3.39150        6.55440       -0.53770
H         -2.19910        7.20330       -1.73150
H         -3.16490        5.74620       -2.12240
H          0.09280        2.90290       -2.83570
H         -1.10690        1.62700       -3.27230
H         -1.48870        4.68680       -3.33390
H         -3.65990        4.37050       -4.31040
H         -3.46870        2.59150       -4.38260
H         -3.66410        3.44310       -2.78210
H         -1.25620        2.62780       -5.58240
H         -1.57230        4.39800       -5.76500
H         -0.00710        3.83350       -5.08620
H         -3.79180        1.19330       -2.72830
H         -2.91030       -0.30770       -2.83190
H         -5.22690       -0.72910       -1.06890
H         -4.29180       -2.57060       -2.33790
H         -5.97660       -2.32630       -2.84270
H         -4.64690       -1.73730       -3.90650
H         -6.16760        1.34110       -2.26280
H         -5.98730        0.46350       -3.81780
H         -7.11260       -0.15860       -2.54790
H         -3.39160        1.56060        1.57490
H         -4.39920        0.13920        1.20180
H         -5.08600        2.46170       -0.54890
H         -5.39930        2.92720        2.49400
H         -4.25480        3.81470        1.45580
H         -6.00760        3.98560        1.16150
H         -7.37440        2.06900        0.32530
H         -6.73230        1.05130        1.67080
H         -6.64790        0.47820       -0.01380
H          2.52100        3.15590       -0.85760
H          1.11180        4.20630       -0.67200
H          2.58840        6.11390       -0.04850
H          4.04250        5.04280       -0.24730
H          3.86740        6.07310        1.22480
