60
mol37-E-2
C          2.00460       -0.84990        5.77500
S          2.30560       -1.58520        4.13710
C          0.72520       -2.49500        4.02600
Si         0.61290       -3.43880        2.41270
Si         0.89790       -2.11010        0.64500
C         -0.59680       -1.10770        0.41990
C         -1.59510       -0.45000        0.27310
C          2.33850       -1.03900        0.90380
C          3.29860       -0.33250        1.07780
Si         1.24380       -3.36190       -1.17240
C          0.36330       -2.60470       -2.56580
C         -0.22660       -2.09820       -3.48620
C          3.02080       -3.42630       -1.52950
C          4.20250       -3.47340       -1.75830
Si         2.24090       -4.96130        2.37310
C          3.82910       -4.12260        2.12070
C          4.88110       -3.56250        1.94550
C          2.26300       -5.86510        3.94520
C          2.27080       -6.46650        4.98900
Si         1.87720       -6.38800        0.69550
C          3.45250       -6.80200       -0.10220
C          4.49920       -7.07060       -0.63470
C          1.09700       -7.89330        1.33960
C          0.57220       -8.88830        1.77040
Si         0.51420       -5.44310       -0.79420
Si        -1.51250       -5.33500        0.12900
C         -2.24040       -6.99390        0.21560
C         -2.71870       -8.09800        0.27540
C         -2.55540       -4.24370       -0.87630
C         -3.24010       -3.51280       -1.54560
Si        -1.33890       -4.51160        2.19820
C         -2.73520       -3.39050        2.48780
C         -3.66330       -2.64470        2.67210
C         -1.38600       -5.87440        3.39410
C         -1.40920       -6.78300        4.18460
C          0.52300       -6.48660       -2.34890
S         -0.50730       -5.72210       -3.64960
C         -0.22650       -7.00220       -4.91310
H          2.87810       -0.22700        6.05660
H          1.10040       -0.20730        5.74490
H          1.87650       -1.64630        6.53380
H          0.58470       -3.20270        4.86910
H         -0.10400       -1.75880        4.05100
H         -2.47360        0.12550        0.14510
H          4.14270        0.28680        1.23130
H         -0.74630       -1.65450       -4.29400
H          5.24080       -3.51640       -1.95690
H          5.80380       -3.06900        1.78920
H          2.27600       -6.99500        5.90560
H          5.41850       -7.30480       -1.10300
H          0.10860       -9.76070        2.14930
H         -3.13720       -9.06820        0.32810
H         -3.83940       -2.86930       -2.13400
H         -4.47730       -1.98820        2.83330
H         -1.42700       -7.58190        4.87800
H          0.19030       -7.51460       -2.09590
H          1.56720       -6.54260       -2.71860
H          0.85430       -7.06820       -5.15620
H         -0.59250       -7.98290       -4.55160
H         -0.78490       -6.73040       -5.83200
