144
mol3-A-0
C         -0.52360       -5.48420        1.05280
S         -1.05180       -3.88770        1.75920
C         -0.12760       -2.80780        0.56900
C          0.04380       -1.21370        0.36470
C          1.73880       -0.82230        0.88230
C          2.87180       -1.96850        0.20570
C          3.28770       -3.30560        0.95180
C          4.11450       -1.87210       -0.79400
C          2.05340       -1.10160        2.47960
C          1.75080       -2.43510        3.25970
C          3.46960       -0.80880        3.08250
C          1.93970        0.91800        0.58720
C          2.26980        2.01710        1.84110
C          2.98600        3.36920        1.50750
C          2.55760        1.93160        3.38410
C          3.36380        1.07410       -0.24210
C          4.01600        2.27820       -1.03830
C          4.64690        0.63440        0.54100
C         -1.19120       -0.38670        1.33810
C         -2.71770       -0.84630        0.86120
C         -3.17310       -2.28000        0.43030
C         -4.01560       -0.42890        1.65610
C         -1.14510       -0.92830        2.99300
C         -2.33810       -1.73210        3.62290
C         -0.58110       -0.32180        4.36810
C         -0.98920        1.33430        1.00940
C         -0.93250        2.09390        2.50410
C         -2.23580        1.98860        3.35350
C         -0.49240        3.56980        2.90570
C         -2.28640        2.25180        0.40030
C         -3.81540        1.99310        0.21020
C         -2.32220        3.82580        0.60900
C          0.40960        1.47120       -0.16800
C          0.09640        0.72710       -1.77630
C          1.38460        1.18060       -2.82450
C          1.16460        2.22740       -3.97760
C          2.67890        0.47410       -3.43910
C         -1.21910        1.34430       -2.68860
C         -1.51370        0.87250       -4.17760
C         -1.71930        2.86730       -2.79670
C         -0.19110       -0.97920       -1.42770
C          0.90240       -1.84200       -2.36490
C          0.84770       -1.67480       -3.92390
C          1.22580       -3.39760       -2.30220
C         -1.63080       -1.66470       -2.13590
C         -3.12920       -1.14690       -2.38440
C         -1.76040       -3.21860       -2.49700
C          0.51460        3.06460       -0.41310
S          1.39290        4.18330       -1.58870
C          0.76180        5.75700       -0.91450
H         -0.88030       -5.57660        0.00660
H          0.58220       -5.57240        1.08310
H         -0.96380       -6.30630        1.65290
H          0.80480       -3.28670        0.64190
H         -0.48820       -3.17400       -0.33910
H          2.22480       -2.42150       -0.43940
H          3.61870       -4.07210        0.21260
H          4.17390       -3.18890        1.59620
H          2.53630       -3.91150        1.46380
H          4.35670       -1.04260       -1.44660
H          4.08420       -2.71230       -1.52080
H          5.07250       -2.04480       -0.25390
H          1.38680       -0.38290        2.87510
H          2.64600       -3.05830        3.47870
H          1.38890       -2.20820        4.27750
H          1.06770       -3.13090        2.81500
H          4.22980       -1.57280        2.86950
H          3.40700       -0.77160        4.19410
H          3.94230        0.11260        2.82840
H          1.31910        2.35380        1.93310
H          2.81400        3.76570        0.51400
H          2.62380        4.19190        2.16360
H          4.07580        3.32170        1.69730
H          2.13000        1.13760        3.97940
H          3.64330        2.01070        3.61090
H          2.14300        2.82620        3.90060
H          3.12750        0.39950       -1.01840
H          4.76990        1.85470       -1.73810
H          4.63250        2.96100       -0.42020
H          3.46160        2.90190       -1.71470
H          4.93510        1.35820        1.32450
H          5.53720        0.55060       -0.12240
H          4.61880       -0.34430        0.98280
H         -2.71020       -0.31700       -0.06070
H         -4.12100       -2.20870       -0.13600
H         -2.51190       -2.83810       -0.18680
H         -3.50660       -2.97160        1.21580
H         -4.87350       -0.32220        0.95920
H         -3.98820        0.46960        2.23940
H         -4.42990       -1.20330        2.32820
H         -0.46160       -1.71300        2.86840
H         -2.82070       -2.47370        3.01540
H         -1.99050       -2.38630        4.45490
H         -3.10180       -1.07260        4.08290
H          0.32030        0.27220        4.44630
H         -1.33430        0.20750        4.98080
H         -0.31430       -1.14900        5.05910
H         -0.17710        1.53480        2.99460
H         -2.58630        0.99220        3.51250
H         -2.07590        2.36060        4.39080
H         -3.07310        2.57980        2.95080
H         -1.34140        4.28180        2.98330
H         -0.10720        3.53800        3.94940
H          0.29650        4.11300        2.38300
H         -2.04270        2.13400       -0.57890
H         -4.10810        1.13010       -0.38790
H         -4.25800        2.76220       -0.46310
H         -4.40860        2.15230        1.12920
H         -1.39070        4.36590        0.78840
H         -2.70220        4.32600       -0.30890
H         -3.02310        4.12690        1.41420
H          1.86210        1.77870       -2.12190
H          0.98150        1.73020       -4.95160
H          0.43850        3.01510       -3.84200
H          2.09070        2.82480       -4.14330
H          3.17840       -0.37470       -2.99800
H          2.56580        0.20700       -4.51100
H          3.50920        1.20830       -3.49600
H         -2.02030        0.92650       -2.14580
H         -1.26760       -0.10210       -4.58370
H         -2.61080        0.94510       -4.34570
H         -1.12060        1.56120       -4.94560
H         -1.04840        3.68900       -2.55510
H         -2.70490        3.02860       -2.31680
H         -1.98570        3.18470       -3.82870
H          1.80070       -1.37330       -2.05740
H          0.63480       -0.67380       -4.26670
H          1.82090       -1.96930       -4.37630
H          0.10020       -2.32530       -4.41890
H          2.28850       -3.54100       -2.58750
H          1.12610       -3.95830       -1.36810
H          0.70140       -4.00380       -3.07080
H         -1.35500       -1.37690       -3.10510
H         -3.89910       -1.91380       -2.19560
H         -3.33290       -0.97150       -3.46460
H         -3.55900       -0.28680       -1.87740
H         -1.14160       -3.97040       -2.01340
H         -2.75620       -3.64180       -2.25580
H         -1.67300       -3.39960       -3.59150
H         -0.42800        3.34250       -0.72600
H          0.60630        3.58760        0.50150
H         -0.34300        5.79800       -1.00670
H          1.05670        5.86610        0.14980
H          1.19840        6.59640       -1.49290
