180
mol33-A-0
C          4.65810       -0.02590        4.65560
S          2.97440        0.42640        4.13250
C          3.17700       -0.15570        2.43460
Si         1.71050        0.02070        1.25320
Si         0.32550       -2.04130        1.86350
C          1.05080       -3.95890        1.73610
C          0.07540       -4.98140        2.37980
C          2.43410       -4.21820        2.42090
C          1.17600       -4.38450        0.26770
C          0.02260       -1.96660        3.88860
C         -0.15180       -0.51750        4.36450
C         -1.19620       -2.75100        4.45470
C          1.23330       -2.52250        4.68390
Si        -1.59860       -1.80200        0.27450
C         -2.18700       -3.39880       -0.88710
C         -2.18080       -4.80600       -0.21840
C         -3.62590       -3.26440       -1.45880
C         -1.29010       -3.51290       -2.11820
C         -3.31410       -1.65860        1.39520
C         -4.61850       -1.26500        0.62190
C         -3.11680       -0.64100        2.52250
C         -3.64400       -3.00180        2.09940
Si         3.17250       -0.11160       -0.86790
C          4.42420        1.39730       -1.47160
C          5.26880        0.94170       -2.69260
C          5.46460        1.91420       -0.41870
C          3.60540        2.61240       -1.93810
C          4.62100       -1.54660       -0.56180
C          4.06950       -2.65600        0.33270
C          5.90010       -1.04820        0.17290
C          5.19280       -2.24300       -1.82970
Si         1.41710       -0.43080       -2.63200
C          1.45020        0.74770       -4.31170
C          0.82170        2.10320       -3.99580
C          0.62860        0.16120       -5.49740
C          2.83460        1.06390       -4.94580
C          1.73340       -2.22530       -3.55470
C          2.02460       -3.31780       -2.51760
C          0.55060       -2.71000       -4.45120
C          2.98550       -2.19550       -4.47500
Si        -0.74570        0.07450       -1.30650
Si        -0.96350        2.49180       -0.39230
C         -0.47760        4.20130       -1.43660
C         -1.00170        4.24500       -2.90800
C         -1.02920        5.52360       -0.80580
C          1.05160        4.35650       -1.46600
C         -2.98520        2.86830       -0.26430
C         -3.63170        3.32120       -1.60240
C         -3.46990        3.94860        0.75100
C         -3.71800        1.57830        0.08630
Si         0.55220        2.29680        1.65480
C          2.07050        3.63500        2.02540
C          2.48520        3.89650        3.50940
C          3.34210        3.08620        1.40970
C          1.80580        5.05010        1.44950
C         -0.60500        2.84980        3.23190
C         -0.00560        2.62540        4.65460
C         -1.95390        2.13960        3.20470
C         -0.94020        4.35860        3.12420
C         -2.15400       -0.17860       -2.55490
S         -2.26080        0.93100       -3.97940
C         -3.74440        0.14380       -4.68120
H          4.78800        0.24170        5.72400
H          5.40710        0.52880        4.05270
H          4.81430       -1.11850        4.53740
H          3.46650       -1.20670        2.48730
H          4.01370        0.38690        2.00080
H          0.21170       -5.08700        3.46870
H          0.24610       -6.01940        2.02110
H         -0.96780       -4.72330        2.17240
H          2.94330       -3.28790        2.67450
H          2.38280       -4.81440        3.35310
H          3.12470       -4.82690        1.80030
H          2.19760       -4.38630       -0.10940
H          0.55500       -3.72190       -0.33240
H          0.91110       -5.44160        0.06260
H          0.56330       -0.21430        5.15370
H         -0.03650        0.16680        3.51870
H         -1.12970       -0.35160        4.85850
H         -1.18220       -2.72880        5.56760
H         -1.25700       -3.80640        4.19190
H         -2.14750       -2.29850        4.19500
H          1.18010       -2.24280        5.75980
H          2.19030       -2.13570        4.31010
H          1.24420       -3.62070        4.71860
H         -2.59490       -5.56600       -0.91860
H         -2.77100       -4.91690        0.68990
H         -1.18500       -5.17190       -0.00260
H         -3.81510       -4.02820       -2.24700
H         -3.80330       -2.29410       -1.94780
H         -4.39990       -3.49340       -0.71470
H         -0.51850       -2.73840       -2.05540
H         -1.83060       -3.38410       -3.07980
H         -0.83240       -4.51860       -2.22290
H         -4.40130       -0.93680       -0.39710
H         -5.37220       -2.07360        0.54430
H         -5.21110       -0.47300        1.12300
H         -3.57220       -0.91670        3.49430
H         -3.62970        0.30660        2.35420
H         -2.04630       -0.47430        2.64110
H         -2.73140       -3.51430        2.41750
H         -4.29450       -2.87300        2.99120
H         -4.24190       -3.68590        1.47430
H          6.21200        0.44200       -2.41580
H          5.61910        1.78930       -3.31950
H          4.70190        0.25120       -3.32310
H          6.51630        1.64200       -0.63220
H          5.53920        3.02030       -0.38620
H          5.24710        1.55550        0.59100
H          4.01930        3.13930       -2.82130
H          2.59100        2.27640       -2.15290
H          3.57800        3.43660       -1.21020
H          4.58350       -2.72530        1.31410
H          4.20670       -3.66640       -0.10620
H          3.00910       -2.46480        0.52520
H          5.69390       -0.51150        1.10760
H          6.53600       -1.90910        0.48140
H          6.57400       -0.47760       -0.47880
H          6.00140       -2.95540       -1.55010
H          5.64960       -1.58400       -2.57080
H          4.47080       -2.86710       -2.33380
H          1.51490        2.94900       -4.17670
H         -0.03950        2.35090       -4.64500
H          0.49190        2.11860       -2.95090
H          1.19590       -0.56090       -6.10140
H          0.37220        0.94100       -6.24870
H         -0.31650       -0.28730       -5.17960
H          3.45280        0.20120       -5.20250
H          3.42700        1.74720       -4.34260
H          2.69930        1.61380       -5.90440
H          2.80720       -4.04670       -2.80920
H          1.20790       -4.01790       -2.36520
H          2.29790       -2.83450       -1.57920
H          0.36110       -3.80090       -4.36610
H         -0.37810       -2.17610       -4.21160
H          0.72050       -2.58400       -5.53710
H          3.80160       -1.62370       -4.01930
H          3.36820       -3.21320       -4.70580
H          2.79200       -1.79150       -5.47870
H         -1.41880        3.28330       -3.19680
H         -0.23330        4.54950       -3.64700
H         -1.79870        4.98970       -3.10420
H         -1.00530        5.54750        0.28040
H         -2.06490        5.76380       -1.09130
H         -0.47770        6.41790       -1.16890
H          1.49260        3.67120       -0.73640
H          1.40590        5.38500       -1.25790
H          1.50350        4.17350       -2.44460
H         -3.36580        2.66070       -2.42840
H         -3.44150        4.36820       -1.85900
H         -4.74350        3.28240       -1.54270
H         -3.06090        4.95010        0.60980
H         -4.57100        4.08810        0.66440
H         -3.33750        3.67260        1.79150
H         -4.35370        1.19920       -0.73960
H         -4.42650        1.71000        0.93060
H         -2.98630        0.80070        0.31950
H          1.80790        4.55620        4.06780
H          3.44810        4.45650        3.54120
H          2.67370        2.98600        4.08140
H          3.07330        2.42840        0.58490
H          3.92740        2.49760        2.13860
H          4.03860        3.88570        1.08170
H          2.50040        5.34100        0.63730
H          0.79230        5.10140        1.08900
H          1.89620        5.87260        2.19270
H          0.86130        1.96530        4.62150
H         -0.72300        2.17340        5.37280
H          0.28390        3.56230        5.16870
H         -2.78280        2.74410        3.63010
H         -1.99460        1.27060        3.85490
H         -2.17090        1.85050        2.17730
H         -1.69520        4.66800        3.88020
H         -1.33520        4.59010        2.13510
H         -0.08660        5.02480        3.29370
H         -2.06000       -1.18570       -2.96930
H         -3.10510       -0.11770       -2.01360
H         -4.02350        0.66980       -5.61690
H         -3.53730       -0.92110       -4.91600
H         -4.58890        0.21400       -3.96430
