108
mol30-C-2
C          4.00810        3.67530        4.26950
S          2.85040        2.30980        3.94560
C          2.85180        2.53990        2.13930
Si         1.73700        1.29610        1.26560
Si         2.65080       -0.79230        1.16970
C          3.24240       -1.40000        2.86140
C          4.31780       -0.53200        3.50380
C          4.06170       -0.78100       -0.08980
C          5.23230       -1.70130        0.25220
Si         1.02460       -2.22130        0.46530
C          1.52010       -3.47600       -0.85690
C          2.87850       -4.13460       -0.64830
C          0.31270       -3.15340        1.94670
C          1.07710       -4.41920        2.30770
Si        -0.22580        1.24780        2.40400
C         -0.06820        0.42830        4.09850
C          0.90930        1.13310        5.02890
C         -0.79170        3.02870        2.66350
C         -1.90550        3.16710        3.69490
Si        -1.75320        0.10510        1.18900
C         -2.66330       -1.10670        2.31600
C         -3.69540       -0.43430        3.21390
C         -3.00450        1.33170        0.49630
C         -4.05240        0.67040       -0.38910
Si        -0.66070       -1.02350       -0.45720
Si         0.17020        0.44680       -1.97070
C          1.30990       -0.37520       -3.23590
C          0.60190       -1.34770       -4.17760
C         -1.27340        1.23660       -2.89800
C         -0.84900        2.01300       -4.14120
Si         1.34440        2.02290       -0.85560
C          2.99260        2.29590       -1.73330
C          2.87070        3.14970       -2.99020
C          0.35640        3.63160       -0.90700
C          1.01750        4.77890       -0.15400
C         -1.79700       -2.17410       -1.42580
S         -2.49770       -3.49690       -0.39310
C         -3.44830       -4.25500       -1.74710
H          4.19220        3.74200        5.36130
H          4.97270        3.48890        3.75300
H          3.57290        4.63460        3.91960
H          3.88430        2.43020        1.76750
H          2.52310        3.56480        1.89430
H          3.64600       -2.42470        2.74140
H          2.37580       -1.45710        3.54720
H          4.65100       -1.00490        4.45140
H          3.92690        0.46920        3.74520
H          5.19800       -0.41890        2.84700
H          4.45000        0.24840       -0.19670
H          3.64260       -1.08180       -1.06690
H          4.89440       -2.64200        0.72890
H          5.94980       -1.18970        0.92240
H          5.78110       -1.95790       -0.67840
H          0.73230       -4.25800       -0.88260
H          1.52400       -2.97790       -1.84020
H          2.89100       -5.12160       -1.15650
H          3.10790       -4.29080        0.42280
H          3.67130       -3.51700       -1.11210
H          0.30740       -2.48340        2.82100
H         -0.73430       -3.43310        1.73090
H          2.12970       -4.18580        2.56030
H          1.03890       -5.14920        1.47290
H          0.60650       -4.88920        3.19660
H         -1.06510        0.42370        4.57910
H          0.24350       -0.62130        3.97770
H          1.94660        0.90290        4.73300
H          0.76530        0.75960        6.06440
H          0.75500        2.23140        5.02720
H          0.07990        3.62700        2.99980
H         -1.15040        3.43830        1.70150
H         -1.56990        2.82130        4.69330
H         -2.19320        4.23610        3.78020
H         -2.80060        2.59410        3.38870
H         -3.19110       -1.85040        1.69180
H         -1.92660       -1.63730        2.94930
H         -4.14600       -1.19440        3.88610
H         -3.22900        0.34790        3.84110
H         -4.50960        0.01470        2.60910
H         -3.51980        1.82810        1.34070
H         -2.47590        2.11660       -0.07180
H         -3.60320        0.35810       -1.34900
H         -4.50400       -0.20970        0.11420
H         -4.85800        1.40070       -0.61290
H          1.76810        0.42450       -3.84960
H          2.12880       -0.89920       -2.71280
H          0.42050       -2.31840       -3.68490
H         -0.36310       -0.94340       -4.54160
H          1.25140       -1.54180       -5.05690
H         -1.97430        0.43360       -3.20450
H         -1.80850        1.92510       -2.21910
H         -1.74970        2.44210       -4.62820
H         -0.34240        1.35580       -4.87520
H         -0.17250        2.84590       -3.87880
H          3.41910        1.31180       -2.00960
H          3.68930        2.80120       -1.03780
H          2.15600        2.70220       -3.70650
H          2.54410        4.17880       -2.73620
H          3.86230        3.21590       -3.48490
H          0.24210        3.93650       -1.96370
H         -0.65810        3.45720       -0.50810
H          0.55800        5.73890       -0.47030
H          2.10660        4.82550       -0.36360
H          0.84810        4.67410        0.93310
H         -1.21010       -2.64660       -2.23200
H         -2.61350       -1.58910       -1.88690
H         -2.76350       -4.58770       -2.55470
H         -3.99600       -5.13620       -1.35510
H         -4.18200       -3.52720       -2.15200
