72
mol44-E-0
C          5.72820       -2.70300        0.95370
S          4.54110       -1.54050        0.21230
C          3.11690       -2.17370        1.14460
Si         1.54990       -1.24500        0.71020
Si         1.68500        0.91440        1.43320
Ge         3.59060        2.00870        0.66720
F          4.16250        1.47320       -0.89430
F          3.31180        3.74160        0.64290
F          4.88410        1.68640        1.81010
Ge         2.10170        1.04940        3.71050
F          3.15440        2.42560        3.99510
F          0.65170        1.32140        4.64860
F          2.93530       -0.39340        4.26080
Si        -0.23820        1.99420        0.89210
Ge         0.16360        3.69340       -0.63420
F          0.39210        5.18880        0.25710
F         -1.22210        3.89900       -1.69110
F          1.61950        3.43480       -1.56680
Ge        -1.07890        3.28650        2.63530
F          0.24370        3.89270        3.61750
F         -2.25120        2.47600        3.64570
F         -1.90040        4.66660        1.92550
Si        -0.10840       -2.32570        1.84440
Ge         0.45970       -2.67560        4.07290
F          0.41060       -1.25770        5.09240
F          2.07040       -3.36970        4.14470
F         -0.66700       -3.84500        4.73950
Ge        -0.30320       -4.54830        1.22110
F         -0.88170       -4.77110       -0.41140
F         -1.43560       -5.32550        2.31480
F          1.25530       -5.33370        1.41070
Si        -2.07120       -1.21590        1.61830
Ge        -3.86390       -2.55640        0.97590
F         -4.71930       -1.84340       -0.37720
F         -4.99750       -2.64230        2.31390
F         -3.40110       -4.20120        0.58840
Ge        -2.81770       -0.62410        3.73820
F         -3.17490       -2.11310        4.59690
F         -1.64800        0.25330        4.69050
F         -4.30430        0.30170        3.63750
Si        -1.74570        0.47240        0.10750
Si        -0.97290       -0.43150       -1.83930
Ge        -1.00820        1.11270       -3.57860
F          0.22500        2.34840       -3.51160
F         -0.79500        0.23460       -5.08380
F         -2.58350        1.88590       -3.61820
Ge        -2.45280       -1.96180       -2.75280
F         -1.86530       -2.40600       -4.34660
F         -2.62480       -3.42100       -1.80910
F         -4.01930       -1.19450       -2.94970
Si         1.08220       -1.33440       -1.52840
Ge         1.30560       -3.51080       -2.32630
F          2.01550       -4.54980       -1.10660
F          2.41050       -3.48920       -3.69060
F         -0.20000       -4.20300       -2.89570
Ge         2.56440       -0.27740       -2.97310
F          2.07490       -0.68590       -4.60900
F          2.56300        1.46340       -2.85340
F          4.19540       -0.87950       -2.73990
C         -3.34630        1.32560       -0.35780
S         -4.19140        1.99010        1.10600
C         -5.59340        2.67100        0.16740
H          5.77140       -2.55470        2.05280
H          5.43120       -3.74800        0.72640
H          6.73400       -2.51430        0.52600
H          2.96960       -3.24820        0.91900
H          3.30520       -2.05400        2.22970
H         -4.00390        0.59640       -0.87080
H         -3.11150        2.15410       -1.05450
H         -6.29730        3.15900        0.87210
H         -5.23330        3.42650       -0.56170
H         -6.12610        1.85690       -0.36670
