36
mol47-D-1
C        -11.29200       -1.27080        2.04440
S        -10.48170       -1.14240        0.41800
C         -8.88530       -1.85560        0.94400
Si        -7.68730       -1.91670       -0.49160
Si        -5.70760       -2.74850        0.13360
Cl        -6.00180       -4.43220        1.34080
Cl        -4.65130       -1.29840        1.21200
Si        -4.54160       -3.31470       -1.69120
Cl        -4.69240       -5.37930       -2.00040
Cl        -2.52980       -2.79680       -1.43920
Si        -7.34510        0.08940       -1.42060
Cl        -9.09640        0.71080       -2.38250
Cl        -6.80060        1.51080        0.01670
Si        -5.68180       -0.09070       -2.90500
Cl        -6.14380        1.02000       -4.61750
Cl        -3.91020        0.64460       -2.06780
Si        -5.38000       -2.23330       -3.46030
Si        -7.37980       -3.11410       -3.93960
Cl        -8.36860       -1.87540       -5.30570
Cl        -7.19050       -5.03360       -4.75350
Si        -8.56250       -3.26030       -2.04690
Cl        -8.51640       -5.22960       -1.33990
Cl       -10.54790       -2.70960       -2.41380
C         -4.20020       -2.28210       -4.91140
S         -3.84270       -4.00730       -5.39040
C         -2.71830       -3.59410       -6.76280
H        -12.34460       -0.93370        1.95230
H        -11.28090       -2.32290        2.39750
H        -10.76910       -0.62370        2.77890
H         -8.45120       -1.20390        1.72950
H         -8.99180       -2.87740        1.36320
H         -3.25070       -1.79950       -4.60190
H         -4.63340       -1.68920       -5.74330
H         -2.40400       -4.53010       -7.26790
H         -1.81840       -3.07610       -6.37080
H         -3.23380       -2.94340       -7.49950
