60
mol49-A-1
C          5.13390       -0.78510        2.27790
S          3.97220       -0.57240        0.89370
C          2.48660       -0.61510        1.94490
Si         0.94180       -0.42200        0.90880
Si         1.12230        1.48650       -0.23960
N          2.40530        1.31940       -1.47500
N          1.54860        2.82320        0.87040
Si        -0.82780        1.94380       -1.23190
N         -0.53450        2.46830       -2.91610
N         -1.66530        3.24550       -0.33450
Si         0.70300       -2.10370       -0.54770
N          0.24860       -3.59630        0.32930
N          2.24130       -2.36190       -1.42300
Si        -0.91460       -1.60250       -2.00930
N         -1.98750       -3.02010       -2.20630
N         -0.19980       -1.17400       -3.59250
Si        -2.11000        0.11460       -1.23510
Si        -2.70380       -0.37600        0.86190
N         -3.91320        0.80150        1.45460
N         -3.39930       -2.02380        0.89630
Si        -0.89660       -0.30850        2.17760
N         -0.88790        1.22540        3.09730
N         -0.94770       -1.68910        3.31410
C         -3.60590        0.34310       -2.33140
S         -4.52590        1.83550       -1.83820
C         -5.80820        1.64160       -3.11460
H          4.93920       -1.74770        2.79510
H          6.17030       -0.79320        1.88260
H          5.02990        0.05510        2.99580
H          2.43230       -1.58430        2.48260
H          2.52290        0.21490        2.68080
H          2.15740        0.49400       -2.06310
H          3.28250        1.07130       -0.96580
H          0.79850        2.87020        1.59470
H          2.42590        2.54130        1.36150
H         -1.46540        2.71050       -3.32270
H          0.01340        3.35580       -2.86480
H         -1.77500        2.91260        0.64920
H         -1.01420        4.06140       -0.30660
H          1.09530       -3.91440        0.84960
H          0.05530       -4.32430       -0.39390
H          2.10500       -3.19900       -2.03200
H          2.95610       -2.62120       -0.70700
H         -2.71490       -2.75350       -2.90660
H         -1.41230       -3.77520       -2.64140
H         -0.99470       -0.93550       -4.22640
H          0.34490       -0.29510       -3.45340
H         -4.80080        0.60670        0.94050
H         -4.09260        0.56950        2.45690
H         -4.23020       -2.01380        0.26360
H         -3.75790       -2.18080        1.86420
H         -1.71020        1.19750        3.74020
H         -0.03360        1.21200        3.69780
H         -1.87050       -1.64380        3.80090
H         -0.22000       -1.50900        4.04070
H         -4.25480       -0.55230       -2.23850
H         -3.26120        0.44450       -3.38140
H         -5.34880        1.67210       -4.12450
H         -6.53590        2.47380       -3.02570
H         -6.34360        0.67950       -2.97420
