72
mol45-D-1
C          3.64970       -4.33640       -3.17870
S          3.42170       -2.69670       -2.42460
C          1.82570       -3.10490       -1.67270
Si         1.10040       -1.67160       -0.71460
Si        -0.02740       -0.13980       -2.13990
Ge         1.43960        0.28480       -3.98720
Cl         2.02140        2.30610       -4.47100
Cl         0.63530       -0.30880       -5.90830
Cl         3.18900       -0.96740       -3.99430
Ge        -1.88660       -0.63920       -3.53530
Cl        -1.60480       -2.32710       -4.86920
Cl        -2.13270        1.07630       -4.83250
Cl        -3.89140       -0.87530       -2.81370
Si        -0.71790        1.59530       -0.74430
Ge         0.05170        3.64810       -1.63790
Cl         2.15270        4.04900       -1.70750
Cl        -0.58040        3.90370       -3.69320
Cl        -0.85590        5.34860       -0.64950
Ge        -3.00960        2.31750       -0.79350
Cl        -4.79200        1.12880       -0.64840
Cl        -3.34620        3.78680        0.76220
Cl        -3.47990        3.37960       -2.61590
Si         2.98940       -0.72410        0.34910
Ge         4.40340       -2.48220        1.17700
Cl         4.75080       -3.93870       -0.38830
Cl         6.38310       -1.76280        1.66030
Cl         4.10140       -3.75340        2.88110
Ge         4.72610        0.18120       -0.98090
Cl         5.77360       -1.35430       -2.09350
Cl         6.29730        1.03380        0.24120
Cl         4.28300        1.73690       -2.38220
Si         2.22410        0.92270        1.81110
Ge         3.32180        0.52350        3.88200
Cl         2.70870        1.82030        5.50990
Cl         5.41030        0.98240        3.54460
Cl         3.48790       -1.41060        4.79170
Ge         3.02550        3.17550        1.64570
Cl         1.45090        4.63390        1.49770
Cl         4.57990        3.67520        0.23420
Cl         3.95540        3.91710        3.45550
Si        -0.12680        1.01110        1.47090
Si        -1.21880       -0.95390        2.11210
Ge        -3.56850       -1.00750        1.95420
Cl        -4.46130        0.89180        2.49420
Cl        -4.40030       -1.83170        0.15140
Cl        -4.41690       -2.35780        3.41800
Ge        -1.21770       -1.17410        4.46270
Cl        -1.78810       -3.16300        5.10930
Cl         0.52390       -0.63850        5.58690
Cl        -2.71430        0.16150        5.28050
Si        -0.31070       -2.66090        0.86490
Ge        -1.78620       -4.18070       -0.17770
Cl        -3.41170       -4.78330        1.12390
Cl        -2.66220       -3.69480       -2.06980
Cl        -0.69590       -5.99560       -0.63510
Ge         0.60960       -4.29440        2.29100
Cl        -0.89490       -5.72070        2.91460
Cl         1.31230       -3.62240        4.20830
Cl         2.04930       -5.54810        1.26580
C         -0.92520        2.35810        2.49390
S         -0.17480        2.51660        4.13440
C         -1.26260        3.87670        4.66000
H          3.67640       -5.11800       -2.39090
H          2.82400       -4.54740       -3.89000
H          4.61150       -4.34930       -3.73080
H          1.94270       -3.96870       -0.99500
H          1.11430       -3.37510       -2.47230
H         -1.99340        2.10710        2.61390
H         -0.84460        3.31700        1.95260
H         -1.13350        4.74990        3.98700
H         -2.32180        3.54480        4.64660
H         -0.99280        4.17600        5.69320
