180
mol4-D-0
C          4.74380        0.96480        3.05570
S          3.11390        0.17210        3.25950
C          2.51290        0.54540        1.55610
C          1.10000        0.16570        0.91110
C          1.19890       -1.38280        0.16070
C          1.90260       -2.60120        0.98780
C          3.21310       -2.75510        1.86920
C          3.42260       -4.24920        2.20990
C          4.56640       -2.18330        1.39930
C          2.19110       -1.38960       -1.09150
C          2.74080       -2.61180       -1.96700
C          2.74160       -2.25210       -3.47220
C          4.16680       -3.05470       -1.61820
C         -0.38580       -1.74590       -0.33230
C         -0.45600       -2.53710       -1.73880
C         -1.62830       -3.23070       -2.57620
C         -2.79480       -3.99610       -1.91220
C         -1.00030       -4.12010       -3.67560
C         -0.97960       -2.89220        0.63130
C         -0.64440       -4.45990        0.89560
C         -0.15260       -5.40640       -0.22210
C         -1.80980       -5.14090        1.64630
C          0.92090        1.38140       -0.31050
C          0.79640        2.91400        0.24250
C          1.86590        3.94900        0.83690
C          1.78320        4.20780        2.35200
C          1.74300        5.34890        0.17230
C          2.21740        1.61280       -1.36150
C          3.75420        1.96750       -1.06420
C          4.16430        3.30360       -1.73420
C          4.76380        0.91850       -1.59520
C         -0.52080        1.01650       -1.17780
C         -0.22360        0.74750       -2.78460
C         -1.22590        0.80970       -4.02760
C         -0.66940        1.74790       -5.14140
C         -1.48580       -0.54040       -4.73170
C         -1.52700        2.30160       -1.36530
C         -1.30980        3.66570       -2.17410
C         -1.37710        4.93560       -1.26890
C         -2.41260        3.93590       -3.23840
C         -1.32330       -0.27120       -0.32300
C         -1.70010        0.14360        1.30660
C         -2.46400        1.57120        1.61770
C         -3.97460        2.07300        1.49410
C         -4.17550        3.23010        0.48900
C         -4.52020        2.63000        2.84400
C         -2.74880       -0.85490        2.09100
C         -4.26110       -1.24450        1.77040
C         -5.18520       -0.94120        2.97060
C         -4.49230       -2.73860        1.45130
C         -0.17580        0.20390        2.10980
C          0.15340       -0.91900        3.27530
C         -0.56980       -2.02290        4.17610
C         -1.42190       -1.48880        5.34710
C          0.50750       -2.93320        4.81070
C          0.02500        1.54300        3.03880
C         -0.66040        1.78050        4.44860
C         -1.31550        3.18260        4.54190
C          0.33320        1.71450        5.64030
C         -2.63760       -0.63570       -1.12860
S         -4.16720        0.36640       -1.25770
C         -5.08150       -0.78710       -2.32820
H          4.62250        2.05810        2.91440
H          5.27850        0.53590        2.18310
H          5.34740        0.78710        3.96880
H          3.31330        0.23140        0.90360
H          2.57250        1.62730        1.56700
H          1.22090       -2.92500        1.72780
H          1.91150       -3.47000        0.31610
H          3.01100       -2.32710        2.86250
H          3.67540       -4.83290        1.30010
H          4.24660       -4.36740        2.94700
H          2.50810       -4.69250        2.65520
H          5.07390       -1.67290        2.24330
H          5.27620       -2.97270        1.07300
H          4.47680       -1.47630        0.58260
H          3.04990       -0.78910       -0.86980
H          1.64270       -0.85270       -1.77680
H          2.16260       -3.53650       -1.87300
H          1.73210       -1.99190       -3.83890
H          3.08650       -3.11430       -4.08260
H          3.41260       -1.38970       -3.66620
H          4.85860       -2.19240       -1.54010
H          4.57340       -3.73360       -2.39880
H          4.15360       -3.66370       -0.70110
H          0.21020       -3.36100       -1.59380
H          0.01530       -1.93310       -2.48800
H         -2.14220       -2.47680       -3.15970
H         -3.72700       -3.39880       -1.93840
H         -3.03740       -4.93480       -2.45520
H         -2.61450       -4.28230       -0.88770
H         -1.77180       -4.43770       -4.41070
H         -0.53290       -5.02670       -3.24140
H         -0.21700       -3.56910       -4.23620
H         -2.04970       -2.84550        0.54470
H         -0.74310       -2.49030        1.58200
H          0.14150       -4.57060        1.65940
H         -0.86800       -5.53130       -1.04470
H         -0.00370       -6.42480        0.19750
H          0.84340       -5.13220       -0.61020
H         -2.06410       -4.57040        2.56060
H         -2.71990       -5.24140        1.02630
H         -1.51990       -6.16100        1.98060
H          0.60980        3.41430       -0.69230
H         -0.14360        3.12570        0.69410
H          2.89020        3.63960        0.66050
H          2.42010        5.07530        2.63140
H          2.20120        3.37680        2.93940
H          0.74860        4.46010        2.66020
H          2.62990        5.97130        0.42100
H          1.68360        5.29510       -0.93390
H          0.83900        5.88130        0.53670
H          2.27030        0.94170       -2.21410
H          1.91490        2.47980       -1.97580
H          3.99580        2.06400       -0.00000
H          3.47960        4.12590       -1.48520
H          5.17940        3.61160       -1.40180
H          4.16620        3.19800       -2.84110
H          4.97390        0.14670       -0.83720
H          5.76140        1.36870       -1.79200
H          4.42560        0.45600       -2.54420
H          0.40620        1.59600       -3.03080
H          0.45280       -0.03630       -3.05160
H         -2.22290        1.15850       -3.73180
H          0.23910        1.30070       -5.60110
H         -1.43180        1.90310       -5.93550
H         -0.37800        2.74610       -4.76450
H         -1.51840       -0.45110       -5.83990
H         -0.69680       -1.28220       -4.52220
H         -2.49970       -0.90640       -4.48250
H         -1.89060        2.62170       -0.44250
H         -2.41400        1.92430       -1.82130
H         -0.32680        3.66060       -2.68280
H         -2.41370        5.32640       -1.17070
H         -1.06080        4.78730       -0.22940
H         -0.75760        5.74390       -1.71250
H         -3.41770        3.94840       -2.76390
H         -2.24330        4.92380       -3.72030
H         -2.46520        3.21730       -4.05850
H         -1.86790        2.45350        1.49850
H         -2.39860        1.55960        2.69280
H         -4.66150        1.28470        1.20250
H         -3.46450        4.05740        0.69640
H         -4.07920        2.91850       -0.56010
H         -5.20560        3.64080        0.57100
H         -5.62940        2.69280        2.80960
H         -4.24460        2.00890        3.72000
H         -4.12790        3.65020        3.04310
H         -2.35930       -1.77900        2.38650
H         -2.79550       -0.42790        3.09680
H         -4.66870       -0.72880        0.91670
H         -4.89060       -1.55020        3.85290
H         -5.14790        0.11370        3.25860
H         -6.24550       -1.16180        2.72070
H         -5.57760       -2.97980        1.45190
H         -4.01290       -3.38660        2.21050
H         -4.16320       -3.00660        0.43690
H          1.02820       -1.39050        2.92110
H          0.70170       -0.43060        4.07700
H         -1.16890       -2.75690        3.63090
H         -0.82340       -0.84220        6.01680
H         -1.79280       -2.33810        5.96080
H         -2.32940       -0.95530        5.03600
H          1.07750       -3.46510        4.02640
H          1.21660       -2.34150        5.42930
H          0.04400       -3.71380        5.45230
H          1.07330        1.64040        3.26620
H         -0.11660        2.44280        2.51360
H         -1.45570        1.03790        4.60740
H         -2.00740        3.22110        5.41050
H         -1.88730        3.45860        3.64030
H         -0.54510        3.97240        4.67410
H         -0.20120        1.93090        6.59060
H          1.13870        2.47060        5.51650
H          0.82100        0.73630        5.78000
H         -2.33420       -0.69760       -2.16630
H         -2.99620       -1.60850       -0.81420
H         -5.35920       -1.69270       -1.75160
H         -6.01010       -0.29220       -2.67820
H         -4.47220       -1.06830       -3.21110
