36
mol40-E-2
C         -8.36880       -4.30480       -2.20230
S         -7.19970       -3.01360       -1.67630
C         -6.17080       -3.13290       -3.17310
Si        -4.74620       -1.92250       -3.09870
Si        -3.71880       -2.22700       -1.13070
Ge        -5.07530       -1.46460        0.58060
Ge        -3.35700       -4.48300       -0.76520
Si        -1.77170       -1.11710       -1.12980
Ge        -1.41840       -0.14450        0.94070
Ge        -0.02050       -2.57830       -1.51310
Si        -3.25610       -2.27320       -4.73970
Ge        -2.20700       -4.30700       -4.40180
Ge        -4.28720       -2.37380       -6.80980
Si        -1.74650       -0.60720       -4.72870
Ge         0.34150       -1.51130       -5.16630
Ge        -2.23560        0.88470       -6.42800
Si        -1.81270        0.45330       -2.73280
Si        -3.77070        1.54880       -2.57330
Ge        -4.10030        2.24290       -0.39200
Ge        -3.74910        3.44720       -3.89520
Si        -5.44770        0.20420       -3.21420
Ge        -6.07540        0.72760       -5.37960
Ge        -7.29750        0.50280       -1.85720
C         -0.42420        1.67800       -2.38170
S          0.82150        1.73080       -3.71460
C          1.88360        2.98900       -2.93950
H         -8.86340       -4.00810       -3.15050
H         -7.83550       -5.26820       -2.34190
H         -9.14270       -4.43310       -1.41830
H         -6.78030       -2.90670       -4.07240
H         -5.75410       -4.15800       -3.25800
H         -0.85600        2.68070       -2.18420
H          0.09090        1.35540       -1.45490
H          1.30270        3.91050       -2.74330
H          2.71810        3.23200       -3.62840
H          2.30330        2.59980       -1.98880
