36
mol40-C-2
C         -5.09260        0.34610        0.41000
S         -4.04910        1.53710        1.30920
C         -2.97320        1.94120       -0.10700
Si        -1.64800        3.20630        0.33130
Si        -1.52950        5.03580       -0.98520
Ge        -3.57220        6.10540       -1.21220
Ge        -0.81920        4.42910       -3.10120
Si        -0.07810        6.48400       -0.07180
Ge         1.21480        7.47070       -1.71750
Ge        -1.21510        8.18410        1.00950
Si        -1.92370        3.90190        2.45040
Ge        -2.49990        2.11500        3.80360
Ge        -3.63970        5.44800        2.57380
Si        -0.01540        4.83570        3.17750
Ge        -0.46350        6.69760        4.47550
Ge         1.13220        3.32350        4.50150
Si         1.23190        5.42390        1.40490
Si         2.02200        3.56420        0.43400
Ge         2.93040        4.07680       -1.63030
Ge         3.69310        2.58690        1.70290
Si         0.31850        2.12640        0.19320
Ge         0.41000        0.49960        1.83490
Ge         0.48150        1.04820       -1.84810
C          2.60360        6.60480        1.87770
S          3.58150        5.93840        3.26100
C          4.71140        7.36270        3.33720
H         -5.67320        0.87010       -0.37720
H         -4.46460       -0.44190       -0.05150
H         -5.79790       -0.12790        1.12260
H         -3.61490        2.37630       -0.89910
H         -2.49750        1.03540       -0.53550
H          2.14580        7.57060        2.17640
H          3.25480        6.76290        0.99310
H          5.45010        7.19530        4.14740
H          4.14200        8.28990        3.55590
H          5.25260        7.47210        2.37440
