60
mol49-E-2
C         -6.28370       -2.80700        0.74320
S         -5.03690       -1.56490        1.20540
C         -3.86930       -2.03710       -0.10950
Si        -2.33490       -0.97150       -0.03550
Si        -2.79890        1.18330       -0.41940
N         -4.25970        1.65700        0.49770
N         -3.07240        1.43380       -2.17020
Si        -1.06620        2.43740        0.23140
N         -0.86210        3.79970       -0.90990
N         -1.37090        3.07340        1.87490
Si        -1.45690       -1.15250        2.00730
N         -1.31250       -2.88120        2.44250
N         -2.52140       -0.32590        3.18390
Si         0.57140       -0.21320        2.02220
N          0.78530        0.71810        3.53440
N          1.82470       -1.48480        1.91260
Si         0.76400        1.15500        0.27230
Si         0.83150       -0.09220       -1.58450
N          2.42340       -0.89890       -1.70430
N          0.56850        0.94610       -3.01820
Si        -0.78440       -1.63830       -1.50000
N         -1.51030       -1.82450       -3.12400
N         -0.09870       -3.20310       -0.96900
C          2.32210        2.16440        0.49460
S          2.62050        3.20950       -0.96590
C          4.14700        3.94730       -0.30510
H         -7.14960       -2.72390        1.43150
H         -5.85490       -3.82740        0.82690
H         -6.63220       -2.62970       -0.29560
H         -3.56740       -3.09720        0.01860
H         -4.34450       -1.90470       -1.10360
H         -4.47130        2.64610        0.23780
H         -5.04630        1.07380        0.13460
H         -3.21770        2.45840       -2.30940
H         -3.97660        0.97000       -2.40780
H         -0.10570        4.40840       -0.52620
H         -0.50710        3.39660       -1.80530
H         -2.18220        3.72680        1.80040
H         -0.53970        3.65010        2.13420
H         -2.28330       -3.26390        2.48390
H         -0.93210       -2.91670        3.41430
H         -2.53390        0.68510        2.92440
H         -2.05250       -0.39230        4.11460
H          1.76010        1.09250        3.52340
H          0.73390        0.03270        4.32050
H          1.75250       -2.05670        2.78330
H          2.74960       -1.00080        1.94370
H          3.14030       -0.14280       -1.77710
H          2.43310       -1.41330       -2.61310
H          0.55320        0.31510       -3.84980
H          1.41430        1.54900       -3.11840
H         -0.72840       -2.05030       -3.77840
H         -2.11920       -2.67180       -3.08580
H          0.63450       -3.46290       -1.66570
H          0.39420       -3.02780       -0.06560
H          2.20660        2.79900        1.39760
H          3.17440        1.46810        0.63800
H          3.93070        4.49090        0.63810
H          4.55310        4.66430       -1.04770
H          4.90310        3.15660       -0.11840
