180
mol4-C-2
C         -5.49270       -0.64020       -0.80670
S         -4.04280       -0.01830       -1.71900
C         -2.84060       -0.18700       -0.33680
C         -1.26220        0.16930       -0.32790
C         -0.33620       -1.04190        0.52720
C         -0.40200       -2.53870       -0.19400
C          0.00840       -4.01000        0.29000
C          1.28500       -4.60340       -0.35960
C         -1.11580       -5.03900       -0.04050
C         -1.06460       -1.31990        1.96550
C         -1.61870       -2.64430        2.61410
C         -2.92340       -2.38210        3.40670
C         -0.63290       -3.29520        3.61430
C          1.24810       -0.42240        0.64790
C          1.67610        0.05420        2.14250
C          2.20490       -0.78190        3.39690
C          3.70400       -0.50980        3.74620
C          1.42250       -0.44910        4.69710
C          2.29060       -1.66270        0.46130
C          3.85780       -1.69740        0.70570
C          4.69880       -1.65720       -0.58730
C          4.28770       -2.98990        1.44490
C         -1.15360        1.74320        0.44330
C         -1.63690        1.72550        2.03350
C         -1.80950        2.87620        3.15720
C         -0.81030        2.75630        4.35240
C         -3.21400        2.83190        3.82270
C         -2.27580        2.72140       -0.22800
C         -3.49560        3.48210        0.43410
C         -3.97970        4.61990       -0.49240
C         -4.74350        2.61610        0.74530
C          0.44800        2.28510        0.24060
C          0.96860        3.00460        1.61260
C          2.24090        3.92690        1.89700
C          3.42410        3.19250        2.58950
C          1.89540        5.10210        2.86510
C          0.67150        3.51690       -0.76210
C          0.10230        5.01300       -0.85440
C         -0.57000        5.66550        0.35530
C          1.16520        6.00520       -1.37110
C          1.36370        0.96790       -0.40720
C          0.86380        0.59230       -2.02740
C          1.75790       -0.69020       -2.41880
C          2.04600       -1.31030       -3.85920
C          2.13830       -2.84900       -3.78580
C          3.35100       -0.79170       -4.51280
C          1.33150        1.51190       -3.33680
C          1.09830        2.95490       -3.98970
C          0.78880        2.85060       -5.50580
C          2.36510        3.82920       -3.88640
C         -0.80980        0.27200       -2.00130
C         -1.22070       -1.09500       -2.79840
C         -2.06640       -1.29760       -4.10230
C         -1.34520       -0.93570       -5.41410
C         -2.50810       -2.77470       -4.21450
C         -1.56100        1.43570       -2.87860
C         -2.92540        1.72050       -3.67960
C         -2.95250        3.20930       -4.09580
C         -4.31740        1.37790       -3.11040
C          2.90310        1.42140       -0.35850
S          4.00130        1.82970       -1.76190
C          5.47770        2.20850       -0.76150
H         -5.35060       -1.71060       -0.55180
H         -5.65120       -0.05100        0.11890
H         -6.39080       -0.54420       -1.45030
H         -3.30590        0.39870        0.43760
H         -3.00280       -1.20780       -0.02960
H         -1.43910       -2.67970       -0.36990
H         -0.07110       -2.56910       -1.19370
H          0.19040       -4.05020        1.35920
H          1.26630       -5.71520       -0.37230
H          1.40990       -4.27300       -1.40590
H          2.18330       -4.37190        0.23030
H         -1.16020       -5.21610       -1.13750
H         -2.13050       -4.71980        0.26370
H         -0.91400       -6.00650        0.46830
H         -1.97710       -0.74390        1.92180
H         -0.50990       -0.92730        2.78370
H         -1.91630       -3.36010        1.85230
H         -3.28290       -3.31910        3.88490
H         -3.73450       -2.01790        2.74570
H         -2.75420       -1.61860        4.19700
H         -0.66650       -2.78880        4.60240
H         -0.90210       -4.36220        3.76620
H          0.41350       -3.24640        3.27660
H          0.83380        0.51290        2.53660
H          2.38290        0.86930        2.04570
H          2.07730       -1.85980        3.23870
H          4.14400        0.33510        3.18190
H          4.31930       -1.41260        3.58260
H          3.86730       -0.25470        4.81620
H          1.56520        0.62030        4.96410
H          1.79640       -1.07380        5.53730
H          0.34120       -0.64250        4.64180
H          2.17420       -2.25970       -0.41930
H          1.88510       -2.37800        1.19130
H          4.19270       -0.86100        1.32300
H          4.71930       -0.66060       -1.04380
H          5.76280       -1.89260       -0.36710
H          4.33390       -2.40000       -1.32560
H          4.29330       -3.86280        0.75930
H          3.63010       -3.23370        2.30190
H          5.32060       -2.87340        1.83860
H         -2.60280        1.22510        2.06170
H         -1.03850        1.04110        2.55350
H         -1.68450        3.89410        2.76000
H         -0.55770        1.70220        4.57830
H          0.10550        3.35170        4.19940
H         -1.21450        3.18360        5.29470
H         -4.02490        3.15380        3.15980
H         -3.28180        3.54420        4.67290
H         -3.43540        1.81150        4.20400
H         -1.77900        3.47410       -0.79550
H         -2.80530        2.18110       -0.98680
H         -3.19320        4.01140        1.33490
H         -4.73660        5.24560        0.02860
H         -3.14820        5.29130       -0.78580
H         -4.44570        4.21250       -1.41240
H         -5.55440        3.25840        1.15160
H         -4.57260        1.83800        1.50410
H         -5.14260        2.11990       -0.15570
H          0.15830        3.69240        1.77270
H          0.87740        2.42620        2.49600
H          2.61090        4.38820        0.96270
H          3.07000        2.66010        3.49860
H          4.19140        3.93120        2.90920
H          3.98160        2.47910        1.96410
H          2.14210        4.85960        3.92240
H          2.47840        6.00540        2.58440
H          0.82640        5.37510        2.90320
H          1.74980        3.63160       -0.90380
H          0.39380        3.08910       -1.66340
H         -0.66450        5.02640       -1.66220
H         -1.25340        4.99510        0.87860
H         -1.18660        6.52440        0.01280
H          0.18090        6.09450        1.03460
H          0.79170        7.05180       -1.32900
H          2.09680        5.94780       -0.77070
H          1.39050        5.81520       -2.43230
H          2.73900       -0.58840       -1.95760
H          1.30450       -1.46050       -1.92440
H          1.22010       -1.11870       -4.55910
H          2.94120       -3.16150       -3.08710
H          1.17580       -3.28770       -3.45710
H          2.35000       -3.27980       -4.78800
H          3.73700       -1.50560       -5.27150
H          3.17890        0.14720       -5.07520
H          4.15160       -0.64040       -3.75890
H          0.95870        0.89430       -4.15790
H          2.38790        1.36720       -3.51600
H          0.23810        3.52530       -3.60400
H         -0.15600        2.30330       -5.69130
H          0.66890        3.86150       -5.95250
H          1.60840        2.32190       -6.03950
H          2.19150        4.82330       -4.35110
H          3.21690        3.35480       -4.42030
H          2.67230        3.98900       -2.84220
H         -1.83730       -1.65150       -2.10350
H         -0.37770       -1.72240       -3.03490
H         -3.01670       -0.77470       -4.03280
H         -0.81590        0.02570       -5.36900
H         -2.08890       -0.86540       -6.23630
H         -0.61320       -1.72170       -5.69490
H         -1.62640       -3.45140       -4.23710
H         -3.15000       -3.05930       -3.35250
H         -3.10350       -2.93450       -5.13960
H         -0.98360        1.42630       -3.78000
H         -1.27340        2.38170       -2.47860
H         -2.88810        1.21300       -4.66720
H         -2.98930        3.86700       -3.20440
H         -2.04470        3.46830       -4.67850
H         -3.83000        3.43210       -4.74050
H         -4.48990        0.30100       -2.94580
H         -4.54970        1.95850       -2.21140
H         -5.09350        1.65770       -3.85500
H          2.96220        2.32880        0.19120
H          3.49370        0.74550        0.23440
H          5.74310        1.34310       -0.11930
H          5.29060        3.10280       -0.13160
H          6.32720        2.42320       -1.44130
