72
mol43-A-0
C          4.95280       -3.57040        0.11970
S          3.23580       -3.17320       -0.33150
C          3.09880       -1.78790        0.82710
Si         1.42020       -0.95910        0.77480
Si         0.09960       -2.21710        2.25120
Si         0.82830       -2.51720        4.40320
Cl         2.90680       -2.77140        4.49880
Cl         0.17600       -1.10490        5.77480
Cl         0.08390       -4.27220        5.27010
Si         0.27600       -4.45490        1.75810
Cl         0.27330       -5.00690       -0.23000
Cl         2.11010       -5.21050        2.43310
Cl        -1.20390       -5.61710        2.68280
Si        -1.98960       -1.23400        2.26930
Si        -3.57070       -2.77320        1.65040
Cl        -4.19600       -3.97490        3.24740
Cl        -5.34360       -1.85990        1.00530
Cl        -2.93420       -4.22010        0.30760
Si        -3.01300       -0.82420        4.28610
Cl        -2.80420       -2.40500        5.64730
Cl        -2.47470        0.88390        5.31060
Cl        -5.07440       -0.55920        4.01980
Si         1.86580        1.19180        1.67440
Si         3.31140        2.60000        0.56190
Cl         2.86110        3.07750       -1.39310
Cl         3.47500        4.46630        1.49740
Cl         5.28560        1.89820        0.53130
Si         3.35850        1.00260        3.47640
Cl         4.19520        2.83130        4.04710
Cl         5.00280       -0.18900        2.96230
Cl         2.89970        0.25890        5.35170
Si        -0.19530        2.27610        1.93360
Si        -0.62970        4.36390        0.96360
Cl        -2.34040        4.37540       -0.21380
Cl        -1.15040        5.90910        2.28120
Cl         0.89660        5.31110       -0.09240
Si        -0.15170        3.16420        4.06930
Cl         0.42960        2.03800        5.70210
Cl        -1.94650        4.05280        4.69760
Cl         1.28230        4.69020        4.08480
Si        -1.80540        0.75580        1.03920
Si        -1.47070        0.28900       -1.26390
Si        -3.44840       -0.56880       -2.19340
Cl        -5.09340        0.62160       -1.67820
Cl        -4.21230       -2.46400       -1.86950
Cl        -3.44020       -0.57390       -4.28390
Si        -1.45770        2.02870       -2.77490
Cl        -1.05700        1.38020       -4.72530
Cl        -3.31610        2.98030       -2.95260
Cl        -0.08600        3.53960       -2.47710
Si         0.54840       -0.88630       -1.44750
Si         2.29090       -0.15100       -2.83020
Cl         2.91130       -1.48070       -4.32750
Cl         1.99460        1.55670       -3.98680
Cl         4.09850        0.04710       -1.82750
Si         0.08180       -2.68740       -2.82220
Cl        -0.29550       -1.93230       -4.73870
Cl        -1.57600       -3.88420       -2.51900
Cl         1.65000       -4.06480       -3.04310
C         -3.53000        1.48540        1.06940
S         -3.83980        2.49760        2.53910
C         -5.54600        2.91820        2.06830
H          5.01280       -3.83610        1.19570
H          5.29350       -4.43620       -0.48380
H          5.61260       -2.70300       -0.09100
H          3.87480       -1.03820        0.59660
H          3.26480       -2.16250        1.85190
H         -3.67420        2.09900        0.16390
H         -4.25490        0.65360        1.05020
H         -6.15670        1.99520        1.98300
H         -5.98620        3.56940        2.85080
H         -5.55120        3.46350        1.10160
