72
mol44-B-2
C         -2.53190       -1.42980       -6.01430
S         -1.25320       -0.76980       -4.90090
C         -2.24180       -0.99700       -3.39430
Si        -1.30740       -0.43020       -1.87370
Si        -2.66860       -0.48440       -0.04400
Ge        -3.67860       -2.55690        0.27270
F         -2.73230       -3.92120       -0.27040
F         -5.16290       -2.57350       -0.66530
F         -4.10680       -2.75750        1.96330
Ge        -4.58290        0.79050       -0.34050
F         -4.96890        0.91640       -2.04760
F         -5.91590       -0.02720        0.45790
F         -4.45820        2.37690        0.38390
Si        -1.49480        0.21870        1.76860
Ge        -2.67430        1.73030        3.08750
F         -4.39240        1.38100        3.00020
F         -2.16050        1.49820        4.75040
F         -2.38580        3.41100        2.70810
Ge        -1.26330       -1.48740        3.32220
F         -1.40040       -3.07680        2.60700
F         -2.56480       -1.34460        4.49190
F          0.25780       -1.32240        4.18140
Si        -0.71380        1.72720       -2.31800
Ge        -2.51370        2.96930       -3.11070
F         -3.30150        2.06900       -4.39530
F         -3.70890        3.40810       -1.91440
F         -1.88220        4.45670       -3.79680
Ge         0.63580        1.90530       -4.19240
F          0.82920        3.60980       -4.56670
F         -0.17100        1.14250       -5.55210
F          2.22370        1.20980       -3.98240
Si         0.25050        2.67070       -0.49720
Ge        -1.00430        4.53180        0.10520
F         -0.35410        5.27730        1.55390
F         -0.86520        5.69650       -1.20110
F         -2.70420        4.20770        0.32910
Ge         2.27600        3.73670       -0.92700
F          2.85200        3.50530       -2.56550
F          2.05180        5.46310       -0.69930
F          3.50280        3.22310        0.21410
Si         0.52150        1.02990        1.07530
Si         1.74880       -0.66110        0.15930
Ge         3.84250        0.04300       -0.53840
F          3.79790        1.13390       -1.90120
F          4.76970       -1.37430       -1.00120
F          4.66590        0.81010        0.80880
Ge         2.45300       -2.18390        1.77060
F          3.16830       -1.30220        3.10930
F          3.70000       -3.19000        1.05340
F          1.21360       -3.24640        2.39300
Si         0.59450       -1.65310       -1.51960
Ge         0.33680       -3.90180       -0.99200
F          1.93860       -4.62050       -0.98620
F         -0.36560       -4.19320        0.57860
F         -0.61040       -4.72330       -2.21890
Ge         1.79600       -1.89240       -3.50030
F          3.36410       -1.11170       -3.46350
F          0.86820       -1.30230       -4.86480
F          2.07920       -3.60370       -3.77210
C          1.52520        1.61440        2.54410
S          0.76910        3.06960        3.32500
C          2.04770        3.22540        4.60980
H         -2.15490       -1.39810       -7.05680
H         -3.45240       -0.81330       -5.94590
H         -2.76340       -2.48220       -5.74770
H         -3.18230       -0.41690       -3.47280
H         -2.48730       -2.07050       -3.27410
H          2.54890        1.86330        2.20120
H          1.58060        0.78910        3.28080
H          3.04030        3.39260        4.14190
H          1.80540        4.09250        5.25750
H          2.07560        2.30770        5.23350
