36
mol46-C-0
C         -4.95350        3.80740       -1.30480
S         -3.99270        2.65770       -0.26910
C         -4.15380        3.60810        1.28300
Si        -3.26360        2.73400        2.67750
Si        -3.54200        3.90260        4.55810
F         -2.69320        5.35400        4.43610
F         -5.18130        4.22400        4.78440
Si        -2.76660        2.72960        6.29590
F         -4.06230        2.12440        7.18840
F         -1.82560        3.73000        7.27330
Si        -1.07150        2.57320        2.27870
F         -0.81640        1.50140        1.00280
F         -0.45880        4.09110        1.87560
Si        -0.02750        1.82060        4.10580
F          1.04660        0.59800        3.66620
F          0.82220        3.08520        4.82730
Si        -1.52750        1.02560        5.56040
Si        -2.87680       -0.40910        4.50630
F         -1.94500       -1.58410        3.73600
F         -3.90390       -1.14240        5.62390
Si        -4.10110        0.68490        2.98990
F         -5.68880        0.81740        3.54070
F         -4.07760       -0.17030        1.53740
C         -0.67470        0.22210        7.01930
S          0.39150       -1.15050        6.45580
C          0.99450       -1.62280        8.10820
H         -4.95260        3.43840       -2.35070
H         -4.49950        4.81850       -1.28160
H         -6.00140        3.85800       -0.94300
H         -5.22940        3.67030        1.54650
H         -3.76060        4.64160        1.18870
H         -0.03520        0.98550        7.50750
H         -1.43860       -0.10950        7.75270
H          1.57450       -0.78780        8.55310
H          1.65600       -2.50780        8.01220
H          0.14350       -1.88230        8.76960
