72
mol43-D-1
C         -3.76900        4.93690        2.47740
S         -3.44010        3.57030        1.32260
C         -1.79430        3.21170        1.98840
Si        -0.94580        1.79450        1.10600
Si        -1.89700       -0.11730        2.14260
Si        -1.55270       -0.46550        4.39420
Cl        -2.46250        0.98560        5.60160
Cl         0.39790       -0.59190        5.05190
Cl        -2.41120       -2.25620        5.05870
Si        -4.19110        0.23350        2.49720
Cl        -5.04140       -1.15140        3.81210
Cl        -5.65390        0.22950        1.03430
Cl        -4.53130        2.09250        3.40130
Si        -1.13980       -1.99530        0.96320
Si        -3.02760       -3.27690        0.58190
Cl        -3.67260       -4.00970        2.43460
Cl        -4.76990       -2.44970       -0.16140
Cl        -2.72550       -4.96240       -0.63180
Si        -0.02900       -3.76310        2.02600
Cl        -0.91450       -5.65510        1.84990
Cl         1.80980       -4.20380        1.16720
Cl         0.21670       -3.68870        4.09380
Si         1.42770        1.90960        1.34460
Si         2.81760        3.62370        0.65030
Cl         4.70670        3.27610        1.48450
Cl         2.24890        5.54070        1.28830
Cl         3.29290        3.89680       -1.34270
Si         1.85660        2.34040        3.60710
Cl         0.13220        2.68180        4.71270
Cl         3.05890        1.00840        4.66650
Cl         2.85980        4.13020        4.03700
Si         2.23460       -0.01150        0.27220
Si         3.60700       -1.15420        1.72840
Cl         4.65300       -2.72370        0.81550
Cl         5.12970        0.05970        2.49840
Cl         2.74100       -1.96960        3.41300
Si         3.95760        0.13360       -1.31580
Cl         3.98120        1.38760       -2.96120
Cl         4.29720       -1.72470       -2.22130
Cl         5.80260        0.65480       -0.48260
Si         0.36480       -1.12550       -0.67500
Si        -0.68540        0.23240       -2.27470
Si         0.56150        1.06340       -4.00870
Cl        -0.58870        1.45730       -5.71380
Cl         1.41760        2.92440       -3.68480
Cl         1.98020       -0.32200       -4.68830
Si        -1.98240       -1.05120       -3.67190
Cl        -0.77990       -2.08480       -5.04190
Cl        -3.09820       -2.56800       -2.82820
Cl        -3.32180        0.08280       -4.81870
Si        -1.66670        1.97470       -1.11980
Si        -3.91690        2.01500       -1.55240
Cl        -4.37910        3.02140       -3.32990
Cl        -4.97610        3.08810       -0.09630
Cl        -4.79180        0.17030       -1.91710
Si        -1.36680        4.12430       -1.87590
Cl        -2.83680        5.39010       -1.08390
Cl         0.37960        5.09340       -1.35790
Cl        -1.52330        4.28930       -3.96010
C          1.15930       -2.49580       -1.67410
S          0.02820       -3.87100       -2.00580
C          1.24980       -4.84080       -2.94230
H         -4.77560        5.35250        2.26740
H         -3.74400        4.56670        3.52350
H         -3.01340        5.73900        2.34400
H         -1.89180        2.94320        3.05430
H         -1.16180        4.11220        1.90870
H          1.49400       -2.06980       -2.63550
H          2.04230       -2.86990       -1.12850
H          1.58740       -4.27090       -3.83310
H          0.77860       -5.78680       -3.27840
H          2.12060       -5.08160       -2.29750
