180
mol4-A-1
C          4.63530       -3.24430        0.20530
S          2.87650       -3.33670       -0.25720
C          2.45760       -1.57340        0.09280
C          1.03640       -0.88580       -0.08440
C         -0.07130       -1.37550        1.16700
C          0.35790       -0.76360        2.59900
C          0.97740       -1.34990        3.94450
C          1.97800       -0.32530        4.55600
C          0.00790       -1.67940        5.09930
C          0.09460       -2.96880        1.46670
C         -0.71210       -3.90290        2.47080
C         -1.50080       -5.03260        1.75700
C          0.21360       -4.67730        3.45050
C         -1.59880       -0.82520        0.67640
C         -2.43530       -0.07060        1.83810
C         -2.66270       -0.60440        3.30150
C         -2.58060        0.54390        4.33300
C         -3.99350       -1.32920        3.56460
C         -2.60230       -2.08360        0.49070
C         -4.06990       -2.24460       -0.13770
C         -5.28130       -1.69850        0.64020
C         -4.35230       -3.74040       -0.39730
C          1.23700        0.87990       -0.09640
C          1.98000        1.46140        1.27270
C          2.66460        2.87060        1.58960
C          4.12610        2.70560        2.08740
C          1.97980        3.66240        2.74300
C          2.27340        1.49050       -1.18790
C          3.83810        1.76740       -1.21830
C          4.25870        2.21120       -2.63600
C          4.81700        0.69880       -0.74710
C         -0.31560        1.55230       -0.36810
C         -0.69160        2.54330        0.86810
C         -1.91270        3.57610        0.98300
C         -1.42720        4.97550        1.46300
C         -3.01780        3.20080        1.99310
C         -0.38340        2.68150       -1.59150
C         -0.26000        4.26520       -1.67880
C         -0.63970        4.71960       -3.10990
C          1.09840        4.89690       -1.35360
C         -1.38900        0.21260       -0.70170
C         -0.84990       -0.71080       -2.08200
C         -2.08480       -1.62010       -2.64080
C         -2.50870       -2.14200       -4.07340
C         -1.72330       -3.32750       -4.64410
C         -3.99820       -2.56190       -4.05010
C         -0.55010        0.27800       -3.31920
C         -0.41620        0.08180       -4.88720
C          0.91740        0.65220       -5.44210
C         -1.53910        0.82920       -5.65970
C          0.54640       -1.56430       -1.60770
C          0.22350       -3.18170       -1.72520
C          0.94280       -4.63260       -1.67920
C          1.89610       -5.07470       -0.53940
C         -0.13220       -5.73760       -1.81630
C          1.70820       -1.46290       -2.75330
C          2.81340       -2.54510       -3.10080
C          2.49590       -3.29670       -4.42080
C          4.23490       -1.96900       -3.26240
C         -2.85520        0.85160       -0.92470
S         -3.56960        1.49770       -2.50780
C         -5.17460        1.97950       -1.79300
H          5.05400       -4.27100        0.21760
H          4.75770       -2.80280        1.21340
H          5.19560       -2.64810       -0.53940
H          2.82640       -1.35020        1.09170
H          3.12710       -1.04730       -0.56760
H          1.31300       -0.53440        2.26830
H         -0.15330        0.16730        2.84680
H          1.59310       -2.23520        3.71930
H          1.45710        0.62420        4.80720
H          2.80780       -0.08510        3.86210
H          2.44730       -0.73000        5.47870
H          0.58170       -2.07950        5.96310
H         -0.50650       -0.76670        5.45240
H         -0.73080       -2.45970        4.87480
H          0.03380       -3.49530        0.56690
H          1.15160       -3.12850        1.72240
H         -1.43960       -3.33000        3.05250
H         -0.81000       -5.80960        1.36530
H         -2.11000       -4.70350        0.91200
H         -2.19370       -5.52170        2.47530
H          0.99790       -5.23300        2.89300
H         -0.37440       -5.41450        4.03990
H          0.71490       -4.05980        4.20180
H         -2.01310        0.87880        1.95560
H         -3.43380        0.19120        1.49390
H         -1.89250       -1.31890        3.51920
H         -1.63400        1.11470        4.24490
H         -3.43660        1.23810        4.19970
H         -2.63350        0.14700        5.36900
H         -3.99790       -2.35030        3.14700
H         -4.85140       -0.72560        3.20470
H         -4.14110       -1.48600        4.65510
H         -2.02770       -2.82250        0.01130
H         -2.71310       -2.54430        1.47220
H         -4.17140       -1.79190       -1.12170
H         -5.48100       -2.28480        1.55470
H         -5.23210       -0.61870        0.84760
H         -6.19240       -1.81470        0.01330
H         -4.41410       -4.29830        0.56150
H         -5.31490       -3.86970       -0.93830
H         -3.56030       -4.19820       -1.02670
H          1.33400        1.41590        2.12560
H          2.78080        0.75170        1.47410
H          2.67740        3.52620        0.71700
H          4.78100        2.17660        1.38640
H          4.59300        3.69990        2.25710
H          4.15000        2.13730        3.04280
H          0.94160        3.95280        2.55130
H          1.98740        3.06970        3.68370
H          2.52180        4.61450        2.93120
H          1.99820        1.32750       -2.20220
H          1.99290        2.53570       -1.12790
H          4.07200        2.66330       -0.62130
H          4.10370        1.39240       -3.36860
H          5.32970        2.50860       -2.65610
H          3.65930        3.08770       -2.96150
H          5.82980        1.14450       -0.63980
H          4.55440        0.29300        0.23620
H          4.91340       -0.09150       -1.49230
H          0.16250        3.21430        0.78580
H         -0.51890        2.15080        1.86950
H         -2.42440        3.70300        0.01150
H         -2.21810        5.73470        1.28080
H         -1.20250        4.96470        2.55170
H         -0.51110        5.33310        0.96100
H         -3.67020        2.37960        1.66100
H         -2.56980        2.97810        2.98050
H         -3.71730        4.05360        2.13550
H          0.25410        2.45160       -2.42740
H         -1.40930        2.62390       -1.91490
H         -1.00780        4.77640       -1.07250
H          0.08200        4.32280       -3.85660
H         -1.65790        4.36530       -3.37980
H         -0.64790        5.82890       -3.18290
H          1.34620        4.77330       -0.29400
H          1.05010        5.99600       -1.51160
H          1.90040        4.51180       -2.01490
H         -2.91720       -0.96080       -2.49460
H         -2.29900       -2.46530       -2.01530
H         -2.50140       -1.34920       -4.81340
H         -2.13390       -3.61320       -5.63660
H         -1.82250       -4.20410       -3.97920
H         -0.66520       -3.08380       -4.82080
H         -4.15840       -3.41020       -3.35200
H         -4.64610       -1.71460       -3.73780
H         -4.33550       -2.87230       -5.06280
H          0.40850        0.62600       -3.08260
H         -1.23710        1.09350       -3.26120
H         -0.41500       -0.97720       -5.17020
H          0.94920        0.54880       -6.54830
H          1.01770        1.72940       -5.18520
H          1.80800        0.12860       -5.04700
H         -2.53540        0.72620       -5.18720
H         -1.33560        1.92200       -5.69260
H         -1.60120        0.45030       -6.70210
H         -0.70540       -3.39550       -1.27550
H         -0.08800       -3.22590       -2.76410
H          1.52560       -4.79440       -2.59600
H          2.18950       -6.13450       -0.69990
H          2.86980       -4.56460       -0.55580
H          1.44480       -5.06150        0.46320
H          0.32330       -6.75090       -1.84570
H         -0.69000       -5.62490       -2.76300
H         -0.85230       -5.70180       -0.97630
H          1.16270       -1.42470       -3.68900
H          2.25480       -0.54680       -2.67750
H          2.92980       -3.25030       -2.28070
H          2.63350       -2.62090       -5.29300
H          1.45750       -3.66640       -4.45800
H          3.16990       -4.17260       -4.53730
H          4.22480       -0.94310       -3.68190
H          4.85900       -2.59210       -3.93970
H          4.76460       -2.01330       -2.29410
H         -2.98460        1.65240       -0.21870
H         -3.61720        0.15220       -0.62020
H         -5.68680        1.09080       -1.36880
H         -5.81040        2.41200       -2.59220
H         -5.02640        2.74240       -1.00050
