72
mol44-A-0
C         -0.13960        2.86620        6.12720
S         -0.32140        1.42070        5.03740
C         -0.27010        2.38960        3.50210
Si        -0.42960        1.28920        1.99540
Si         1.19560       -0.32070        1.92240
Ge         3.28590        0.60370        2.36980
F          3.12880        2.26560        2.90290
F          4.39230        0.51460        1.01430
F          4.01630       -0.29360        3.69040
Ge         1.16710       -1.94440        3.58500
F          1.21250       -1.20610        5.17570
F          2.62740       -2.90160        3.40070
F         -0.18540       -3.04290        3.49060
Si         1.04440       -1.36160       -0.08470
Ge         2.98940       -1.12730       -1.32100
F          2.78960       -1.94550       -2.86120
F          3.45310        0.53450       -1.59130
F          4.28940       -1.92450       -0.45100
Ge         1.07890       -3.67900        0.11440
F          0.77130       -4.38780       -1.46170
F         -0.05060       -4.35130        1.26520
F          2.69220       -4.15310        0.61880
Si        -2.51020        0.35700        1.91470
Ge        -4.18700        1.95890        1.92880
F         -5.53750        1.33130        2.85900
F         -3.62090        3.42200        2.71520
F         -4.79770        2.31320        0.32950
Ge        -3.08010       -0.75820        3.87610
F         -3.79580        0.41720        4.96680
F         -1.73250       -1.47130        4.72880
F         -4.29020       -1.98280        3.53360
Si        -2.65670       -0.95860        0.06930
Ge        -4.63930       -0.65500       -1.11080
F         -5.05500       -2.19010       -1.85530
F         -4.54740        0.51580       -2.40420
F         -5.93110       -0.22580       -0.00260
Ge        -2.94170       -3.18430        0.65560
F         -2.18450       -4.22660       -0.53580
F         -4.66250       -3.53310        0.66550
F         -2.34540       -3.54310        2.25930
Si        -0.79980       -0.63910       -1.21670
Si        -0.52370        1.57520       -1.72560
Ge         1.14790        1.84660       -3.32430
F          2.54080        2.73020       -2.73390
F          1.65330        0.29550       -3.96410
F          0.48610        2.76570       -4.66590
Ge        -2.25870        2.63830       -2.84840
F         -3.70660        2.84640       -1.89690
F         -2.65020        1.78990       -4.33310
F         -1.68940        4.24070       -3.28520
Si        -0.15120        2.68640        0.21390
Ge         1.91800        3.72820        0.22160
F          1.92420        4.94070       -1.04820
F          2.13710        4.55250        1.75580
F          3.25330        2.63840       -0.05890
Ge        -1.46310        4.59770        0.40570
F         -3.17180        4.36770        0.12350
F         -1.24010        5.27960        2.00770
F         -0.88640        5.76800       -0.76900
C         -0.87860       -1.71400       -2.74800
S         -2.21550       -1.18620       -3.85850
C         -1.88200       -2.46800       -5.10600
H         -0.98650        3.56730        5.97520
H         -0.14060        2.52540        7.18280
H          0.81960        3.38370        5.91750
H          0.68760        2.94310        3.44060
H         -1.10810        3.11410        3.49650
H         -1.05490       -2.76100       -2.43200
H          0.09290       -1.65410       -3.27700
H         -2.60480       -2.35730       -5.94010
H         -2.00190       -3.47650       -4.65810
H         -0.85260       -2.35340       -5.50500
