36
mol47-E-0
C          7.58640       -4.75090        2.59870
S          5.80850       -4.37000        2.52710
C          5.95810       -2.81060        3.45530
Si         4.28380       -2.00180        3.64860
Si         2.92490       -3.19370        4.96360
Cl         2.86140       -5.19410        4.35090
Cl         3.62100       -3.10050        6.93490
Si         0.86700       -2.32250        4.84150
Cl        -0.29840       -3.45110        3.51950
Cl        -0.01840       -2.36140        6.73760
Si         4.57840        0.00020        4.58920
Cl         5.84940       -0.17980        6.24200
Cl         5.44510        1.29460        3.19160
Si         2.60010        0.80930        5.24370
Cl         2.33410        0.44260        7.28690
Cl         2.56190        2.87510        4.91690
Si         0.97000       -0.21290        4.09980
Si         1.56240       -0.28780        1.93060
Cl         2.14990        1.61550        1.28850
Cl        -0.03180       -0.96030        0.75090
Si         3.27710       -1.70410        1.67630
Cl         2.56040       -3.54220        0.97640
Cl         4.64740       -0.92750        0.29860
C         -0.67820        0.61720        4.47700
S         -1.47330        1.31170        2.98730
C         -2.94430        1.96190        3.83890
H          7.77230       -5.71020        2.07380
H          8.16870       -3.94910        2.09880
H          7.91300       -4.85010        3.65480
H          6.62470       -2.11160        2.90870
H          6.37530       -3.00730        4.46460
H         -1.35980       -0.15290        4.89150
H         -0.53700        1.38990        5.26080
H         -3.59390        2.47190        3.09870
H         -3.51460        1.13230        4.30580
H         -2.64380        2.69390        4.61240
