180
mol41-D-2
C          0.07670       -4.50310        4.39990
S         -0.15400       -4.04420        2.65470
C         -0.07730       -2.25970        2.96330
Si        -0.27090       -1.23730        1.40910
Si         0.74490       -2.69190       -0.25470
Ge         0.17840       -4.97470       -0.71240
C          1.54720       -5.91880       -1.72620
C         -1.43000       -5.09770       -1.75700
C         -0.03690       -6.18900        0.80500
Ge         2.88760       -3.41260        0.52700
C          2.77530       -4.84300        1.84410
C          3.87230       -2.11040        1.51070
C          4.12640       -4.11210       -0.80330
Si         0.53780       -1.51960       -2.27560
Ge         2.68900       -1.18250       -3.26170
C          4.23760       -1.11200       -2.10190
C          3.20050       -2.68930       -4.38750
C          2.76030        0.31020       -4.50140
Ge        -0.31950       -2.59130       -4.24590
C         -2.21750       -2.78370       -4.21500
C         -0.01690       -1.50890       -5.84410
C          0.30520       -4.34700       -4.81500
Si         0.82030        0.92450        1.57150
Ge         3.16350        1.37310        2.06230
C          4.79510        0.86680        1.11280
C          3.62260        0.69540        3.83430
C          3.46680        3.28810        2.19030
Ge         0.10330        1.92810        3.62380
C          1.16090        3.32190        4.49900
C         -0.08900        0.70070        5.11990
C         -1.56890        2.80050        3.38700
Si         0.11700        1.99530       -0.41710
Ge         1.85320        3.10070       -1.62050
C          2.47450        4.77510       -0.84170
C          1.51430        3.68040       -3.45760
C          3.42180        2.02820       -1.62810
Ge        -1.01910        4.06940       -0.05570
C         -1.12670        5.13590       -1.69210
C         -0.15930        5.27370        1.20330
C         -2.83410        3.96250        0.56270
Si        -0.93880        0.30280       -1.77270
Si        -3.14090       -0.32660       -0.93150
Ge        -4.62210        1.48870       -1.48170
C         -3.77550        3.01850       -2.29890
C         -5.88660        1.23000       -2.94500
C         -5.81190        2.02060       -0.04560
Ge        -4.73780       -1.92430       -1.80720
C         -5.19550       -1.83080       -3.70860
C         -6.47440       -1.66610       -0.95010
C         -4.40740       -3.81230       -1.56770
Si        -2.69590       -0.97100        1.32060
Ge        -3.57360       -3.07320        2.10830
C         -3.50180       -3.39180        4.03990
C         -2.51570       -4.53020        1.52190
C         -5.41290       -3.57690        1.71530
Ge        -4.03680        0.19540        2.99630
C         -3.37460       -0.11720        4.79880
C         -4.66180        2.04900        3.06900
C         -5.82460       -0.58760        3.12400
C         -1.08020        1.17970       -3.41850
S         -2.44190        0.56970       -4.44560
C         -2.11280        1.71130       -5.82480
H          1.06420       -4.14630        4.75980
H         -0.73040       -4.06330        5.02190
H          0.03920       -5.60780        4.49030
H         -0.87550       -1.97690        3.67530
H          0.89180       -2.00440        3.40980
H          2.08740       -5.22270       -2.38680
H          1.07100       -6.71530       -2.33350
H          2.26400       -6.39970       -1.03390
H         -1.24090       -5.60510       -2.72130
H         -1.75870       -4.06060       -1.91980
H         -2.19540       -5.67610       -1.20450
H         -1.03040       -6.67720        0.75950
H          0.72140       -6.99540        0.75790
H          0.07550       -5.64500        1.75920
H          2.62130       -5.81300        1.33880
H          3.73380       -4.90350        2.39840
H          1.96300       -4.63740        2.56520
H          3.20620       -1.24790        1.56430
H          4.82230       -1.89030        0.98830
H          4.10360       -2.48030        2.52930
H          5.13180       -3.67330       -0.64390
H          4.21680       -5.21080       -0.69870
H          3.77590       -3.86330       -1.81650
H          3.87600       -1.23420       -1.07530
H          4.94480       -1.92650       -2.34740
H          4.79560       -0.16720       -2.23640
H          2.86360       -3.63690       -3.93230
H          2.77410       -2.57470       -5.39880
H          4.30360       -2.71630       -4.49590
H          2.37410        0.00640       -5.49230
H          2.15530        1.13890       -4.10960
H          3.81280        0.63620       -4.62520
H         -2.66270       -2.33350       -5.12370
H         -2.49390       -3.85450       -4.17740
H         -2.53660       -2.24780       -3.31730
H          0.89530       -1.84190       -6.37230
H          0.08580       -0.44510       -5.58470
H         -0.87140       -1.62500       -6.54060
H          0.57270       -4.96260       -3.95310
H          1.17100       -4.25850       -5.49720
H         -0.50830       -4.85600       -5.37080
H          4.58050        0.32170        0.19530
H          5.42770        0.23830        1.77080
H          5.39450        1.76520        0.86620
H          4.47950        1.27470        4.23430
H          3.92280       -0.36720        3.77440
H          2.77790        0.79100        4.52790
H          4.03860        3.64050        1.31030
H          4.05650        3.51600        3.10090
H          2.50620        3.81430        2.23320
H          2.21250        3.01370        4.63090
H          0.73380        3.49730        5.50740
H          1.10480        4.27950        3.95240
H         -0.67950        1.19190        5.91920
H          0.89030        0.42470        5.54890
H         -0.60090       -0.20610        4.79490
H         -2.15790        2.72740        4.31760
H         -2.04910        2.29770        2.53540
H         -1.39440        3.87000        3.18460
H          3.55500        4.90210       -1.05610
H          2.32230        4.77900        0.24340
H          1.93470        5.63180       -1.28610
H          2.47560        3.69630       -4.01050
H          1.10630        4.70950       -3.46080
H          0.81380        3.02380       -3.98980
H          3.09030        1.04240       -1.27020
H          4.16970        2.47720       -0.95200
H          3.85550        1.99070       -2.64370
H         -0.28670        5.85320       -1.73840
H         -1.10170        4.48870       -2.58730
H         -2.07140        5.71620       -1.69480
H          0.50250        4.69050        1.85620
H          0.42050        6.04790        0.66460
H         -0.92550        5.79010        1.81570
H         -2.91690        4.35600        1.59120
H         -3.11710        2.90040        0.49630
H         -3.49200        4.59410       -0.06130
H         -4.33480        3.94210       -2.05140
H         -2.75130        3.05320       -1.93810
H         -3.75900        2.91220       -3.40030
H         -6.39470        2.19650       -3.14050
H         -5.35770        0.94080       -3.87100
H         -6.66940        0.50540       -2.68460
H         -6.84450        2.11540       -0.43810
H         -5.50880        3.00080        0.36780
H         -5.80450        1.23880        0.72960
H         -4.53860       -1.13070       -4.24380
H         -5.09180       -2.83520       -4.16610
H         -6.24840       -1.51450       -3.84090
H         -6.85730       -2.63460       -0.57720
H         -6.38390       -0.93670       -0.12640
H         -7.23080       -1.31300       -1.67290
H         -3.73160       -3.94160       -0.71800
H         -3.97750       -4.24840       -2.48560
H         -5.36340       -4.33980       -1.38210
H         -3.84400       -4.42920        4.23220
H         -4.17660       -2.71690        4.59310
H         -2.47150       -3.30900        4.42860
H         -3.14520       -5.31740        1.06090
H         -1.82760       -4.08320        0.80160
H         -1.97640       -4.95300        2.39080
H         -5.86430       -4.03550        2.61840
H         -5.45380       -4.32880        0.90850
H         -6.00400       -2.69390        1.45040
H         -4.22530       -0.37280        5.46270
H         -2.90190        0.79480        5.19920
H         -2.65610       -0.95020        4.80750
H         -4.23080        2.66260        2.28870
H         -5.76270        2.09410        2.94980
H         -4.42840        2.48750        4.05880
H         -6.42740       -0.00180        3.84740
H         -6.33330       -0.54980        2.14500
H         -5.79290       -1.61760        3.51140
H         -1.20230        2.26010       -3.25020
H         -0.13080        1.02030       -3.95060
H         -1.08880        1.55220       -6.22080
H         -2.84510        1.51820       -6.63480
H         -2.22080        2.76250       -5.48630
