72
mol43-A-2
C          5.10950       -3.20280        1.62360
S          3.50330       -2.56140        2.18760
C          3.06500       -1.84030        0.58500
Si         1.39380       -0.99520        0.60020
Si         0.10240       -2.27750        2.08160
Si         0.88780       -2.63790        4.20430
Cl         2.96550       -2.91330        4.23520
Cl         0.28770       -1.25430        5.62800
Cl         0.15050       -4.40710        5.04810
Si         0.24310       -4.50390        1.52870
Cl         0.17960       -5.00610       -0.47160
Cl         2.08780       -5.29280        2.13310
Cl        -1.22180       -5.67520        2.46560
Si        -1.97560       -1.27620        2.18250
Si        -3.58840       -2.78490        1.57040
Cl        -4.18090       -4.02030        3.15420
Cl        -5.36950       -1.83970        0.99800
Cl        -3.00370       -4.20370        0.17500
Si        -2.93860       -0.90750        4.23670
Cl        -2.70750       -2.52360        5.55210
Cl        -2.35520        0.76950        5.28760
Cl        -5.00380       -0.61710        4.03500
Si         1.88540        1.12840        1.53970
Si         3.31320        2.55070        0.42230
Cl         2.81340        3.08090       -1.50700
Cl         3.52100        4.39150        1.39860
Cl         5.27880        1.83190        0.31900
Si         3.42560        0.88070        3.29400
Cl         4.29580        2.68690        3.88590
Cl         5.04320       -0.31270        2.70470
Cl         3.01190        0.09470        5.16250
Si        -0.15700        2.22470        1.88340
Si        -0.59770        4.33990        0.97780
Cl        -2.34030        4.39640       -0.15060
Cl        -1.06630        5.85640        2.34720
Cl         0.90790        5.29920       -0.09690
Si        -0.04530        3.05880        4.03830
Cl         0.57010        1.88700        5.62580
Cl        -1.81310        3.94780        4.73840
Cl         1.40350        4.57070        4.05120
Si        -1.80630        0.74190        0.99720
Si        -1.54020        0.32970       -1.32520
Si        -3.55140       -0.48660       -2.21970
Cl        -5.16970        0.70560       -1.62940
Cl        -4.32460       -2.38220       -1.92140
Cl        -3.60140       -0.43960       -4.30910
Si        -1.55220        2.10630       -2.79260
Cl        -1.21230        1.50300       -4.76880
Cl        -3.40540        3.07900       -2.89450
Cl        -0.15800        3.59680       -2.49620
Si         0.46130       -0.85900       -1.59420
Si         2.17180       -0.10540       -3.00670
Cl         2.73720       -1.40290       -4.55320
Cl         1.86030        1.63320       -4.11210
Cl         4.00850        0.05110       -2.05050
Si        -0.06110       -2.62100       -2.99940
Cl        -0.48400       -1.81480       -4.88530
Cl        -1.72140       -3.80970       -2.67940
Cl         1.48680       -4.00660       -3.29810
C         -3.52200        1.48630        1.09370
S         -3.78090        2.46430        2.59610
C         -5.49530        2.91210        2.18390
H          5.75460       -2.36740        1.28010
H          5.60910       -3.71840        2.46890
H          4.96110       -3.92830        0.79670
H          3.05840       -2.63130       -0.18420
H          3.82660       -1.08990        0.31150
H         -3.68530        2.12360        0.20810
H         -4.25540        0.66180        1.07440
H         -6.11720        1.99710        2.09300
H         -5.90720        3.54750        2.99430
H         -5.52200        3.48130        1.23150
