36
mol47-C-2
C         -9.28360       -0.91630       -3.81560
S         -7.51840       -1.32040       -3.61720
C         -7.78240       -2.98730       -2.92060
Si        -6.14550       -3.81310       -2.54700
Si        -4.82340       -3.98210       -4.34660
Cl        -5.82100       -4.90740       -5.93770
Cl        -4.22760       -2.06240       -4.92850
Si        -3.02460       -5.21370       -3.83130
Cl        -3.24640       -7.14980       -4.59390
Cl        -1.34300       -4.31830       -4.69920
Si        -5.10080       -2.57540       -1.00550
Cl        -6.09950       -2.77480        0.82280
Cl        -5.12830       -0.56560       -1.58840
Si        -2.98530       -3.26360       -0.78560
Cl        -2.43600       -3.25510        1.23360
Cl        -1.72050       -1.98440       -1.85580
Si        -2.82260       -5.33400       -1.60420
Si        -4.52090       -6.54320       -0.79610
Cl        -4.60840       -6.29650        1.28030
Cl        -4.20910       -8.56550       -1.23580
Si        -6.44190       -5.86350       -1.71560
Cl        -6.98040       -7.17440       -3.25620
Cl        -7.95480       -5.83010       -0.27040
C         -1.23310       -6.15770       -1.06030
S          0.21450       -5.19860       -1.62390
C          1.46830       -6.31020       -0.90870
H         -9.37760        0.12680       -4.18040
H         -9.74640       -1.60070       -4.55670
H         -9.81080       -1.00610       -2.84310
H         -8.39440       -2.97040       -1.99520
H         -8.31510       -3.60220       -3.67440
H         -1.22280       -6.18990        0.04820
H         -1.22460       -7.20200       -1.43520
H          1.33370       -7.34180       -1.29550
H          2.47740       -5.94850       -1.19310
H          1.38410       -6.31160        0.19790
