36
mol48-A-2
C         -2.43730       -6.65730        0.19490
S         -2.04130       -5.11940       -0.69350
C         -1.37620       -4.27270        0.77450
Si        -0.80390       -2.54660        0.33700
Si        -2.49670       -1.51020       -0.69960
Br        -4.40170       -1.79520        0.47260
Br        -2.78660       -2.42220       -2.74070
Si        -2.03870        0.67390       -0.89580
Br        -2.74030        1.40540       -2.91070
Br        -3.13130        1.83660        0.69650
Si        -0.26440       -1.35610        2.15690
Br         1.16990       -2.48580        3.48110
Br        -2.12580       -0.91370        3.34890
Si         0.69160        0.55730        1.49120
Br        -0.01810        2.26310        2.78370
Br         2.93210        0.40950        1.69390
Si         0.17030        0.95720       -0.64950
Si         1.23010       -0.54370       -1.93480
Br         3.42100       -0.02680       -2.06070
Br         0.37130       -0.51980       -4.02000
Si         0.96350       -2.58200       -1.04270
Br         0.63060       -4.10850       -2.66810
Br         2.82400       -3.15010        0.09850
C          0.69960        2.70660       -1.04660
S          0.51250        3.04530       -2.82560
C          1.11650        4.75780       -2.71020
H         -1.51400       -7.09730        0.62620
H         -3.16970       -6.45300        1.00340
H         -2.88170       -7.38230       -0.51730
H         -2.16590       -4.19380        1.55030
H         -0.51320       -4.83910        1.18200
H          0.07320        3.40850       -0.45790
H          1.76340        2.82570       -0.75350
H          1.10030        5.21590       -3.72020
H          0.46120        5.34880       -2.03700
H          2.15800        4.76990       -2.32680
