60
mol49-C-0
C         -3.84260       -5.24120        0.95390
S         -2.66250       -4.11110        0.15310
C         -2.87510       -2.78650        1.38460
Si        -1.79180       -1.32930        0.94810
Si        -1.95300        0.21320        2.55090
N         -3.67360        0.47270        2.96550
N         -1.05720       -0.34510        3.99510
Si        -1.06200        2.12520        1.81020
N         -2.37050        3.18690        1.20770
N         -0.18380        2.93520        3.14140
Si        -2.43000       -0.38130       -0.97270
N         -2.69680       -1.62740       -2.22830
N         -3.95010        0.51790       -0.69060
Si        -0.84210        1.04570       -1.64030
N         -1.61320        2.47560       -2.38930
N          0.22830        0.24700       -2.82980
Si         0.35510        1.65800        0.14550
Si         1.60860       -0.07490        0.79150
N          2.23210        0.24450        2.43710
N          2.97900       -0.29460       -0.33720
Si         0.35600       -1.92600        0.82420
N          0.77990       -2.90690        2.25850
N          0.63870       -2.88130       -0.66160
C          1.48780        3.09630       -0.23290
S          0.51630        4.58520       -0.62540
C          1.97390        5.63870       -0.90240
H         -3.90210       -6.17910        0.36480
H         -4.84990       -4.77650        0.99210
H         -3.50130       -5.48350        1.98180
H         -3.93260       -2.45040        1.40340
H         -2.58380       -3.15490        2.39020
H         -4.03090       -0.43000        3.35030
H         -3.69430        1.16400        3.74800
H         -1.51340       -1.23020        4.30980
H         -1.22020        0.36330        4.74480
H         -1.94360        4.11990        1.01680
H         -3.03850        3.32100        1.99900
H          0.18530        3.83320        2.75690
H         -0.89550        3.18490        3.86370
H         -1.78120       -2.10270       -2.38660
H         -2.92960       -1.12050       -3.11110
H         -4.26090        0.88540       -1.61730
H         -4.66270       -0.18290       -0.38800
H         -0.85280        3.01960       -2.85400
H         -2.23220        2.11880       -3.15090
H         -0.35360        0.04580       -3.67320
H          0.94210        0.95370       -3.11540
H          2.81340        1.10990        2.37690
H          2.87990       -0.53990        2.67220
H          2.57090       -0.41460       -1.29060
H          3.50940        0.60480       -0.34730
H          0.20260       -3.77580        2.21030
H          1.77580       -3.19870        2.14100
H          1.64470       -3.16050       -0.65300
H          0.51680       -2.22970       -1.46760
H          2.12890        2.82350       -1.09670
H          2.12440        3.28620        0.65600
H          2.58610        5.23180       -1.73380
H          2.58530        5.69470        0.02230
H          1.63600        6.66020       -1.17180
