36
mol48-D-1
C          4.95680       -7.69700       -1.93490
S          3.48320       -6.68950       -1.58190
C          4.03270       -6.21040        0.08620
Si         2.76810       -5.10110        0.90410
Si         0.85350       -6.18570        1.31680
Br         0.26530       -7.41590       -0.47870
Br         1.11820       -7.57330        3.07520
Si        -0.74090       -4.68350        1.78590
Br        -2.04290       -5.45960        3.45610
Br        -2.04460       -4.35530       -0.02350
Si         3.52720       -4.23580        2.82510
Br         5.18250       -2.76980        2.38620
Br         4.34970       -5.84210        4.17810
Si         1.83560       -3.19210        3.85960
Br         2.60090       -1.29800        4.81230
Br         1.01370       -4.50730        5.49590
Si         0.19990       -2.73870        2.39180
Si         1.13950       -1.83820        0.55260
Br         2.50760       -0.14170        1.13070
Br        -0.41890       -1.05210       -0.87860
Si         2.33190       -3.41610       -0.50000
Br         1.17580       -4.20500       -2.26770
Br         4.26450       -2.54200       -1.26560
C         -1.11370       -1.69950        3.25470
S         -1.43990       -0.12370        2.39310
C         -2.70630        0.47280        3.55610
H          5.86910       -7.06610       -1.89330
H          4.86470       -8.12840       -2.95260
H          5.03800       -8.52450       -1.19980
H          4.99250       -5.65730        0.01890
H          4.17050       -7.11420        0.71530
H         -0.82160       -1.53420        4.31230
H         -2.05840       -2.27940        3.26200
H         -3.58750       -0.20160        3.53810
H         -3.02590        1.49030        3.25210
H         -2.29140        0.51980        4.58120
