36
mol47-D-0
C        -10.32400       -1.19170        2.95300
S         -8.77520       -1.01580        2.01020
C         -9.36200       -1.88640        0.51640
Si        -8.01730       -1.94250       -0.78310
Si        -6.18690       -2.97530       -0.01800
Cl        -6.73780       -4.71110        1.01260
Cl        -5.15590       -1.69660        1.27940
Si        -4.86710       -3.50320       -1.74690
Cl        -5.13260       -5.52140       -2.23420
Cl        -2.86410       -3.17020       -1.24060
Si        -7.42670        0.09010       -1.50710
Cl        -9.00810        0.91900       -2.59820
Cl        -6.94540        1.35630        0.08900
Si        -5.62410       -0.11880       -2.81460
Cl        -5.80740        1.14510       -4.47260
Cl        -3.90930        0.40830       -1.73670
Si        -5.41900       -2.23380       -3.50360
Si        -7.41100       -2.91240       -4.26280
Cl        -8.14610       -1.50310       -5.62370
Cl        -7.27200       -4.77800       -5.20230
Si        -8.80730       -3.09620       -2.52530
Cl        -8.98540       -5.10800       -1.97670
Cl       -10.69300       -2.36080       -3.05740
C         -4.08980       -2.27510       -4.81940
S         -3.80770       -3.98510       -5.39350
C         -2.50830       -3.56830       -6.60040
H        -10.22070       -0.66130        3.92150
H        -11.17020       -0.74810        2.38850
H        -10.52650       -2.26510        3.14950
H         -9.61780       -2.92900        0.79500
H        -10.26480       -1.41580        0.07500
H         -3.14860       -1.89480       -4.37250
H         -4.38180       -1.59110       -5.64290
H         -2.20830       -4.48840       -7.14200
H         -1.62300       -3.15460       -6.07420
H         -2.88840       -2.82690       -7.33370
