72
mol43-B-1
C          5.86730       -0.02430       -1.72170
S          4.14880       -0.57100       -1.96090
C          3.46380        0.56060       -0.72360
Si         1.60540        0.40840       -0.54880
Si         0.91670        2.51010        0.23520
Si         1.50470        4.37950       -0.95300
Cl         1.61110        6.09560        0.24280
Cl         0.13890        4.99530       -2.38720
Cl         3.43550        4.22430       -1.75390
Si         2.18040        3.12830        2.05280
Cl         4.08430        3.75430        1.44130
Cl         1.35620        4.73690        3.11510
Cl         2.61860        1.68280        3.45850
Si        -1.38060        2.41550        0.44650
Si        -2.65160        4.13110       -0.40440
Cl        -1.83810        6.02410       -0.01650
Cl        -3.08520        4.10070       -2.42140
Cl        -4.55740        4.13140        0.46640
Si        -1.97580        2.89430        2.60720
Cl        -3.90400        2.20800        3.05970
Cl        -2.09390        4.95270        2.97470
Cl        -0.61030        2.32270        4.05980
Si         1.00670       -1.38780        0.90680
Si         1.57870       -1.62640        3.13570
Cl         1.06070       -3.57220        3.71120
Cl         3.62620       -1.42720        3.55250
Cl         0.67090       -0.50520        4.61590
Si         2.30480       -3.23120        0.27020
Cl         1.33630       -4.99390       -0.27450
Cl         3.70250       -2.77600       -1.19680
Cl         3.61450       -3.98920        1.72110
Si        -1.33550       -1.44430        0.86170
Si        -2.01710       -3.58070        0.33140
Cl        -1.18340       -5.01700        1.60680
Cl        -1.56300       -4.28590       -1.55260
Cl        -4.08010       -3.86850        0.55970
Si        -2.57440       -1.49080        2.85530
Cl        -2.37780       -3.28840        3.90430
Cl        -2.36970       -0.17150        4.43560
Cl        -4.62630       -1.33390        2.46340
Si        -2.05660        0.37130       -0.48650
Si        -1.45170        0.13360       -2.78470
Si        -2.02730        1.53780       -4.53080
Cl        -4.07670        1.96260       -4.68910
Cl        -1.12870        3.38210       -4.78270
Cl        -1.50030        0.57160       -6.31230
Si        -2.73870       -1.62690       -3.64070
Cl        -1.75980       -3.25340       -4.49970
Cl        -4.13550       -2.34960       -2.28450
Cl        -4.04760       -1.14390       -5.20550
Si         0.89090        0.07400       -2.78760
Si         2.12580        1.45730       -4.22760
Cl         4.17750        1.30190       -3.83500
Cl         1.93620        0.92670       -6.24070
Cl         1.91060        3.50660       -4.41270
Si         1.58480       -1.80810       -3.92160
Cl         1.13850       -3.64130       -3.08910
Cl         3.64880       -1.83930       -4.28210
Cl         0.75600       -1.92620       -5.84100
C         -3.91540        0.34560       -0.25940
S         -4.79980        1.17850       -1.60290
C         -6.45050        0.86670       -0.90490
H          6.18400       -0.20890       -0.67400
H          6.52710       -0.59900       -2.40310
H          5.95990        1.05640       -1.95790
H          3.92010        0.33640        0.25580
H          3.71290        1.59970       -0.99840
H         -4.15200        0.85330        0.69150
H         -4.25260       -0.70270       -0.19210
H         -6.53790        1.34160        0.09460
H         -7.21560        1.30380       -1.57840
H         -6.62820       -0.22560       -0.81940
