180
mol4-C-0
C         -5.37310       -1.19710       -0.28310
S         -3.66220       -1.78320       -0.05840
C         -2.84670       -0.16220       -0.36030
C         -1.26680        0.18700       -0.34450
C         -0.34940       -1.03100        0.51020
C         -0.41920       -2.52530       -0.21590
C         -0.01730       -3.99990        0.26510
C          1.25900       -4.59700       -0.38160
C         -1.14490       -5.02280       -0.07260
C         -1.08430       -1.31010        1.94500
C         -1.64680       -2.63390        2.58750
C         -2.95320       -2.36830        3.37610
C         -0.66760       -3.29230        3.58920
C          1.23730       -0.41910        0.63860
C          1.66190        0.05100        2.13620
C          2.18230       -0.79120        3.39000
C          3.68130       -0.52700        3.74560
C          1.39660       -0.45890        4.68830
C          2.27480       -1.66350        0.45200
C          3.84100       -1.70600        0.70210
C          4.68690       -1.66570       -0.58760
C          4.26230       -3.00270        1.43890
C         -1.15390        1.75800        0.43180
C         -1.64310        1.73760        2.02020
C         -1.81470        2.88570        3.14680
C         -0.82040        2.75760        4.34520
C         -3.22180        2.84570        3.80700
C         -2.26920        2.74330       -0.24060
C         -3.48790        3.50750        0.41950
C         -3.96350        4.65030       -0.50530
C         -4.74090        2.64620        0.72330
C          0.45090        2.29330        0.23670
C          0.96960        3.00620        1.61280
C          2.24500        3.92190        1.90470
C          3.42240        3.18010        2.59930
C          1.90130        5.09570        2.87520
C          0.68360        3.52710       -0.76140
C          0.12150        5.02600       -0.85120
C         -0.55230        5.67790        0.35800
C          1.19070        6.01500       -1.36090
C          1.36300        0.97390       -0.41170
C          0.86740        0.60560       -2.03490
C          1.75720       -0.67980       -2.42700
C          2.04770       -1.29680       -3.86820
C          2.13280       -2.83600       -3.79920
C          3.35740       -0.78210       -4.51540
C          1.34400        1.52700       -3.33980
C          1.11980        2.97310       -3.98910
C          0.81540        2.87480       -5.50670
C          2.39010        3.84130       -3.87850
C         -0.80780        0.29270       -2.01600
C         -1.22190       -1.06990       -2.81880
C         -2.06360       -1.26470       -4.12640
C         -1.33600       -0.90200       -5.43440
C         -2.51150       -2.73950       -4.24470
C         -1.55050        1.46250       -2.89240
C         -2.91050        1.75590       -3.69760
C         -2.92940        3.24610       -4.10930
C         -4.30620        1.41780       -3.13450
C          2.90430        1.42040       -0.35600
S          4.00940        1.82800       -1.75410
C          5.48380        2.19700       -0.74710
H         -5.63760       -0.48010        0.52120
H         -5.49060       -0.71200       -1.27300
H         -6.06100       -2.06510       -0.22600
H         -3.22330        0.10020       -1.33430
H         -3.38660        0.48290        0.31430
H         -1.45640       -2.66100       -0.39600
H         -0.08480       -2.55410       -1.21440
H          0.16060       -4.04410        1.33490
H          1.23540       -5.70870       -0.39780
H          1.38920       -4.26400       -1.42640
H          2.15620       -4.37140        0.21240
H         -1.18610       -5.19630       -1.17040
H         -2.15920       -4.69990        0.22880
H         -0.94930       -5.99270        0.43390
H         -1.99410       -0.72980        1.89970
H         -0.53090       -0.92250        2.76640
H         -1.94480       -3.34610        1.82230
H         -3.31860       -3.30510        3.85010
H         -3.76020       -1.99840        2.71320
H         -2.78340       -1.60790        4.16930
H         -0.70260       -2.78890        4.57880
H         -0.94220       -4.35860        3.73690
H          0.38030       -3.24720        3.25550
H          0.82020        0.51240        2.52870
H          2.37270        0.86330        2.04450
H          2.05040       -1.86810        3.22800
H          4.12720        0.31760        3.18550
H          4.29310       -1.43200        3.58160
H          3.84180       -0.27590        4.81700
H          1.54310        0.60910        4.95920
H          1.76460       -1.08780        5.52800
H          0.31470       -0.64720        4.62850
H          2.15900       -2.25730       -0.43080
H          1.86340       -2.37910        1.17840
H          4.17740       -0.87300        1.32320
H          4.71350       -0.66770       -1.04110
H          5.74900       -1.90650       -0.36430
H          4.32130       -2.40450       -1.32960
H          4.26650       -3.87350        0.75070
H          3.60050       -3.24610        2.29270
H          5.29430       -2.89200        1.83670
H         -2.61140        1.24150        2.04340
H         -1.04970        1.04900        2.54030
H         -1.68360        3.90420        2.75320
H         -0.57340        1.70170        4.56890
H          0.09860        3.34930        4.19740
H         -1.22620        3.18380        5.28740
H         -4.02880        3.17330        3.14210
H         -3.28950        3.55570        4.65910
H         -3.44920        1.82510        4.18430
H         -1.76690        3.49550       -0.80390
H         -2.79830        2.20770       -1.00300
H         -3.18660        4.03270        1.32290
H         -4.71950        5.27780        0.01470
H         -3.12790        5.31880       -0.79370
H         -4.42800        4.24780       -1.42830
H         -5.55040        3.29090        1.12870
H         -4.57630        1.86500        1.48040
H         -5.13890        2.15460       -0.18060
H          0.16180        3.69720        1.77210
H          0.87260        2.42550        2.49410
H          2.62060        4.38440        0.97320
H          3.06250        2.64650        3.50550
H          4.19180        3.91430        2.92410
H          3.97890        2.46600        1.97370
H          2.14290        4.84890        3.93260
H          2.48940        5.99720        2.59930
H          0.83340        5.37340        2.91010
H          1.76300        3.63740       -0.89880
H          0.40730        3.10330       -1.66500
H         -0.64230        5.04540       -1.66170
H         -1.24070        5.00900        0.87680
H         -1.16380        6.54060        0.01590
H          0.19800        6.10140        1.04150
H          0.82190        7.06320       -1.31700
H          2.11980        5.95150       -0.75730
H          1.41910        5.82720       -2.42190
H          2.73690       -0.58380       -1.96190
H          1.29850       -1.44950       -1.93660
H          1.22530       -1.09930       -4.57060
H          2.93170       -3.15440       -3.09850
H          1.16720       -3.27150       -3.47540
H          2.34630       -3.26480       -4.80200
H          3.74300       -1.49540       -5.27490
H          3.19170        0.15940       -5.07560
H          4.15600       -0.63670       -3.75810
H          0.97150        0.91370       -4.16420
H          2.40040        1.37810       -3.51560
H          0.26080        3.54620       -3.60480
H         -0.13120        2.33240       -5.69730
H          0.70170        3.88760       -5.95070
H          1.63450        2.34410       -6.03900
H          2.22260        4.83760       -4.34070
H          3.24180        3.36470       -4.41070
H          2.69420        3.99650       -2.83270
H         -1.84350       -1.62580       -2.12780
H         -0.38080       -1.70040       -3.05410
H         -3.01180       -0.73770       -4.05880
H         -0.80250        0.05680       -5.38440
H         -2.07630       -0.82590       -6.25910
H         -0.60650       -1.69060       -5.71490
H         -1.63290       -3.42010       -4.26620
H         -3.15800       -3.02370       -3.38600
H         -3.10420       -2.89370       -5.17250
H         -0.96980        1.45330       -3.79170
H         -1.26000        2.40600       -2.48850
H         -2.87200        1.25130       -4.68650
H         -2.96650        3.90120       -3.21600
H         -2.01830        3.50280       -4.68780
H         -3.80350        3.47490       -4.75650
H         -4.48410        0.34130       -2.97390
H         -4.53910        1.99680       -2.23460
H         -5.07820        1.70350       -3.88120
H          2.96540        2.32580        0.19660
H          3.48960        0.74000        0.23700
H          5.74300        1.32840       -0.10670
H          5.29850        3.09030       -0.11520
H          6.33680        2.40990       -1.42310
