180
mol41-D-1
C         -0.65950       -3.21630        5.35340
S         -1.31710       -2.00970        4.16120
C         -0.03960       -2.32710        2.91510
Si        -0.24320       -1.28690        1.37410
Si         0.77080       -2.71790       -0.31110
Ge         0.21040       -4.99700       -0.79370
C          1.57830       -5.92410       -1.82440
C         -1.40180       -5.11320       -1.83320
C          0.00550       -6.23010        0.70980
Ge         2.91920       -3.44020        0.45320
C          2.81730       -4.88670        1.75360
C          3.90340       -2.14650        1.44840
C          4.15490       -4.11950       -0.89040
Si         0.55120       -1.52220       -2.31700
Ge         2.69720       -1.16580       -3.30770
C          4.25030       -1.10370       -2.15350
C          3.20930       -2.65720       -4.45360
C          2.75820        0.34190       -4.52980
Ge        -0.31040       -2.57340       -4.29640
C         -2.20750       -2.77280       -4.26010
C         -0.01810       -1.47090       -5.88280
C          0.31810       -4.31990       -4.88910
Si         0.84110        0.87670        1.55790
Ge         3.18470        1.32770        2.04450
C          4.81420        0.83860        1.08230
C          3.65350        0.63050        3.80640
C          3.48180        3.24210        2.19410
Ge         0.12900        1.85320        3.62500
C          1.18530        3.24010        4.51250
C         -0.05280        0.60720        5.10710
C         -1.54720        2.72230        3.40540
Si         0.12590        1.96870       -0.41490
Ge         1.85320        3.09450       -1.61200
C          2.47180        4.76160       -0.81570
C          1.50480        3.69500       -3.44070
C          3.42550        2.02770       -1.63880
Ge        -1.01600        4.03420       -0.02400
C         -1.13400        5.11980       -1.64710
C         -0.15520        5.22650        1.24570
C         -2.82800        3.91360        0.60040
Si        -0.92960        0.28870       -1.78630
Si        -3.12600       -0.35850       -0.94370
Ge        -4.61580        1.45810       -1.46610
C         -3.77790        3.00050       -2.26840
C         -5.88540        1.21240       -2.92720
C         -5.80150        1.96860       -0.01890
Ge        -4.72090       -1.95120       -1.83200
C         -5.18670       -1.83660       -3.73020
C         -6.45480       -1.70940       -0.96470
C         -4.38290       -3.84080       -1.61640
Si        -2.66950       -1.02820        1.29870
Ge        -3.53660       -3.14270        2.06470
C         -3.45570       -3.48410        3.99210
C         -2.47610       -4.58880        1.45670
C         -5.37570       -3.64820        1.67320
Ge        -4.00760        0.11340        2.99370
C         -3.33680       -0.21830        4.78960
C         -4.63870        1.96380        3.09110
C         -5.79200       -0.67740        3.11930
C         -1.08080        1.18480       -3.42090
S         -2.44460        0.58220       -4.44970
C         -2.12520        1.74140       -5.81640
H         -0.69230       -4.23710        4.91890
H          0.38510       -2.95740        5.62440
H         -1.28460       -3.19560        6.26940
H          0.95620       -2.12260        3.35170
H         -0.07500       -3.38070        2.61130
H          2.11330       -5.21830       -2.47880
H          1.10240       -6.71490       -2.43920
H          2.29960       -6.41070       -1.14080
H         -1.21500       -5.60840       -2.80430
H         -1.73480       -4.07540       -1.98220
H         -2.16300       -5.70090       -1.28450
H         -0.98640       -6.72130        0.66260
H          0.76650       -7.03320        0.65000
H          0.12000       -5.69720        1.67000
H          2.66460       -5.85110        1.23730
H          3.77830       -4.95040        2.30310
H          2.00730       -4.69260        2.48040
H          3.23450       -1.28700        1.51500
H          4.85050       -1.91680        0.92480
H          4.14010       -2.52770        2.46150
H          5.15940       -3.67910       -0.72990
H          4.24960       -5.21890       -0.79930
H          3.79950       -3.85980       -1.89920
H          3.89330       -1.23940       -1.12700
H          4.95940       -1.91260       -2.41160
H          4.80440       -0.15540       -2.27890
H          2.87760       -3.61140       -4.00840
H          2.77830       -2.53200       -5.46170
H          4.31200       -2.67900       -4.56670
H          2.36890        0.04850       -5.52270
H          2.15190        1.16360       -4.12560
H          3.80910        0.67300       -4.65390
H         -2.65810       -2.31340       -5.16150
H         -2.48000       -3.84500       -4.23420
H         -2.52490       -2.24890       -3.35480
H          0.89300       -1.79430       -6.41860
H          0.08190       -0.40990       -5.61110
H         -0.87510       -1.58170       -6.57710
H          0.59130       -4.94480       -4.03570
H          1.18080       -4.22020       -5.57370
H         -0.49580       -4.82510       -5.44760
H          4.59770        0.30370        0.15930
H          5.45160        0.20450        1.73020
H          5.40940        1.74200        0.84410
H          4.51000        1.20800        4.20970
H          3.95710       -0.43030        3.73250
H          2.81130        0.71480        4.50450
H          4.04870        3.60700        1.31610
H          4.07450        3.46110        3.10500
H          2.51960        3.76440        2.24720
H          2.23850        2.93410        4.63640
H          0.76180        3.40200        5.52460
H          1.12360        4.20400        3.97760
H         -0.64180        1.08680        5.91450
H          0.92920        0.32970        5.52870
H         -0.56290       -0.29740        4.77330
H         -2.13210        2.63610        4.33750
H         -2.02910        2.22810        2.54980
H         -1.37720        3.79490        3.21510
H          3.55100        4.89510       -1.03310
H          2.32410        4.75200        0.26990
H          1.92730        5.62170       -1.24770
H          2.46360        3.72080       -3.99730
H          1.09310        4.72260       -3.42990
H          0.80440        3.04220       -3.97790
H          3.09900        1.03660       -1.29140
H          4.17470        2.47130       -0.96040
H          3.85520        2.00390       -2.65650
H         -0.29670        5.84060       -1.68830
H         -1.11050        4.48350       -2.55010
H         -2.08080        5.69670       -1.63910
H          0.51130        4.63790        1.88890
H          0.41970        6.00920        0.71400
H         -0.92070        5.73280        1.86740
H         -2.90800        4.29440        1.63390
H         -3.10760        2.85130        0.52240
H         -3.49070        4.55020       -0.01330
H         -4.33940        3.91910       -2.00760
H         -2.75240        3.03450       -1.91140
H         -3.76560        2.90740       -3.37110
H         -6.39770        2.17940       -3.10910
H         -5.35930        0.93610       -3.85880
H         -6.66450        0.48190       -2.67230
H         -6.83610        2.06430       -0.40600
H         -5.50010        2.94470        0.40500
H         -5.78820        1.17760        0.74680
H         -4.53450       -1.12790       -4.25960
H         -5.08140       -2.83520       -4.20020
H         -6.24130       -1.52260       -3.85440
H         -6.83280       -2.68370       -0.60190
H         -6.36350       -0.98960       -0.13270
H         -7.21540       -1.35040       -1.68020
H         -3.70320       -3.97790       -0.77110
H         -3.95530       -4.26430       -2.54120
H         -5.33630       -4.37390       -1.43320
H         -3.79350       -4.52500        4.17340
H         -4.13060       -2.81830        4.55610
H         -2.42420       -3.40230        4.37750
H         -3.10470       -5.37260        0.98880
H         -1.79240       -4.13080        0.73890
H         -1.93170       -5.02010        2.31830
H         -5.82180       -4.11910        2.57260
H         -5.41730       -4.39050        0.85770
H         -5.97090       -2.76420        1.42130
H         -4.18390       -0.48490        5.45390
H         -2.86570        0.69050        5.19890
H         -2.61540       -1.04890        4.78540
H         -4.21310        2.58820        2.31640
H         -5.74020        2.00640        2.97690
H         -4.40280        2.39120        4.08510
H         -6.39390       -0.10240        3.85210
H         -6.30490       -0.62970        2.14290
H         -5.75520       -1.71190        3.49420
H         -1.20600        2.26260       -3.23920
H         -0.13310        1.03510       -3.95870
H         -1.10230        1.59070       -6.21850
H         -2.86020        1.55540       -6.62570
H         -2.23540        2.78810       -5.46490
