72
mol45-B-1
C          0.50190       -4.52280       -4.72780
S         -0.32990       -3.15960       -3.85660
C          0.87920       -3.09030       -2.51040
Si         0.47100       -1.76870       -1.25130
Si        -0.29800        0.02730       -2.58560
Ge         1.09850        0.22960       -4.53120
Cl         0.17640        1.44620       -6.06080
Cl         3.09700        1.00250       -4.67080
Cl         1.32080       -1.70700       -5.47570
Ge        -2.24910       -0.26410       -3.89470
Cl        -4.08490       -0.82040       -2.94600
Cl        -2.76180        1.54670       -4.96580
Cl        -1.94010       -1.68920       -5.49650
Si        -0.59740        1.86800       -1.18690
Ge         0.47450        3.69470       -2.26730
Cl         2.43600        3.58960       -3.12600
Cl        -0.70710        4.11710       -4.03120
Cl         0.49330        5.54630       -1.13650
Ge        -2.71550        2.98350       -1.06750
Cl        -3.46660        3.17840        0.93920
Cl        -2.63380        5.08950       -1.56550
Cl        -4.33230        2.38820       -2.36730
Si         2.52040       -1.22900       -0.26460
Ge         3.62720       -3.18090        0.46930
Cl         2.51280       -4.76250        1.38600
Cl         5.28920       -2.74420        1.79070
Cl         4.49000       -4.17240       -1.25250
Ge         4.28480       -0.57600       -1.68230
Cl         6.20500       -1.07650       -0.81690
Cl         4.29640       -1.70130       -3.53410
Cl         4.54790        1.53470       -1.99320
Si         2.10370        0.42460        1.28010
Ge         2.78300       -0.28780        3.42020
Cl         4.88520        0.11520        3.74430
Cl         1.83640        0.86030        4.99560
Cl         2.74050       -2.40390        3.79640
Ge         3.51740        2.31530        1.29140
Cl         3.15200        3.93290       -0.06280
Cl         5.60930        1.78760        1.08000
Cl         3.34900        3.29000        3.21860
Si        -0.12630        1.06810        1.00150
Si        -1.57620       -0.67410        1.67960
Ge        -3.91010       -0.27890        1.72170
Cl        -4.45810        1.15210        3.25290
Cl        -4.90850        0.34630       -0.06500
Cl        -5.00280       -2.05080        2.31810
Ge        -1.47210       -0.91290        4.06880
Cl         0.09280       -1.77220        5.26210
Cl        -3.13060       -2.06690        4.83550
Cl        -1.71280        1.02430        5.00800
Si        -1.14890       -2.51810        0.31870
Ge        -2.90910       -3.53940       -0.94750
Cl        -3.20530       -5.64020       -0.51280
Cl        -2.45690       -3.72710       -3.04240
Cl        -4.94430       -2.85550       -0.72750
Ge        -0.91910       -4.37620        1.78400
Cl         0.26300       -4.34740        3.57230
Cl        -2.88720       -4.72230        2.61660
Cl        -0.37130       -6.24160        0.82070
C         -0.40940        2.38670        2.29740
S          0.09980        4.03050        1.73390
C         -0.36720        4.86490        3.28150
H          0.54700       -5.42060       -4.07650
H         -0.07390       -4.77110       -5.64270
H          1.52840       -4.21820       -5.02030
H          1.88520       -2.89690       -2.92220
H          0.88970       -4.06420       -1.99100
H         -1.47960        2.40050        2.56910
H          0.18000        2.11820        3.19120
H         -0.14230        5.94700        3.19030
H         -1.45370        4.73770        3.47020
H          0.21340        4.44720        4.13030
