72
mol42-D-2
C          0.58770        5.08560        3.25820
S          1.31280        3.53170        2.65020
C         -0.06420        3.16010        1.52510
Si         0.22000        1.55420        0.60270
Si         2.28010        1.57330       -0.37200
Si         3.94110        1.93930        1.08810
F          3.37770        2.86120        2.38130
F          4.61610        0.50610        1.64120
F          5.16780        2.80210        0.31680
Si         2.62040        3.38370       -1.66120
F          3.89750        3.08080       -2.71900
F          1.26940        3.85210       -2.53460
F          3.04990        4.67440       -0.66430
Si         2.59360       -0.38400       -1.47090
Si         4.62510       -1.28380       -1.12690
F          4.71560       -2.23610        0.24890
F          5.77110       -0.05090       -1.03450
F          5.00370       -2.26450       -2.44570
Si         2.80010       -0.03310       -3.67520
F          4.42950        0.20060       -4.04190
F          1.97880        1.34390       -4.17000
F          2.25370       -1.38100       -4.52610
Si        -1.41560        1.12890       -0.94110
Si        -1.59550        2.50710       -2.70860
F         -3.01480        2.11080       -3.52790
F         -1.71280        4.11160       -2.21160
F         -0.33270        2.34870       -3.79680
Si        -3.45210        1.49630       -0.04220
F         -4.31530        2.57030       -1.01390
F         -4.36600        0.09030        0.08470
F         -3.30310        2.20670        1.47540
Si        -1.07690       -0.97070       -1.73090
Si        -2.81730       -2.31490       -1.30830
F         -4.17130       -1.71390       -2.11340
F         -3.17730       -2.41120        0.32540
F         -2.48890       -3.85620       -1.90620
Si        -1.19640       -1.10420       -3.97350
F         -2.77340       -0.74530       -4.44880
F         -0.84500       -2.68350       -4.44630
F         -0.16690       -0.05700       -4.78190
Si         0.89320       -1.80840       -0.94710
Si         0.71630       -2.07890        1.31900
Si         2.50930       -2.83790        2.44360
F          3.08690       -4.26570        1.76340
F          2.02260       -3.17330        4.02260
F          3.75110       -1.71800        2.53380
Si        -0.69800       -3.77080        1.79520
F         -2.08730       -3.24900        2.58610
F         -1.12720       -4.58890        0.38930
F          0.06760       -4.88240        2.80580
Si         0.14410       -0.06890        2.20180
Si        -1.82840       -0.15000        3.25880
F         -2.19510        1.37670        3.87200
F         -1.70310       -1.22260        4.55360
F         -3.07320       -0.66970        2.26460
Si         1.37060        0.48960        4.00330
F          0.91740        2.02980        4.51670
F          3.02630        0.47310        3.74180
F          1.03390       -0.60390        5.24130
C          1.12330       -3.43500       -1.84800
S          2.55870       -4.34850       -1.21160
C          2.35030       -5.75490       -2.34690
H          0.44800        5.79610        2.41710
H         -0.38820        4.88520        3.74760
H          1.27550        5.53900        4.00100
H         -0.17800        3.98090        0.79050
H         -1.00140        3.06710        2.10840
H          1.27130       -3.22050       -2.92480
H          0.20790       -4.04600       -1.72570
H          2.43110       -5.41080       -3.39910
H          3.14850       -6.49950       -2.15020
H          1.36290       -6.23460       -2.18270
