36
mol46-E-2
C          2.26600        4.15360       -3.40970
S          0.50470        4.60170       -3.51680
C         -0.11580        2.91330       -3.83800
Si        -1.98600        2.85050       -4.03440
Si        -2.71700        4.92350       -4.43970
F         -2.63590        5.82400       -3.01700
F         -1.75170        5.64270       -5.61990
Si        -4.83390        4.84720       -5.15500
F         -5.71150        6.10600       -4.45730
F         -4.86890        4.99270       -6.83410
Si        -3.06980        2.10460       -2.21790
F         -2.47470        2.88050       -0.84460
F         -2.84120        0.44110       -2.07060
Si        -5.25530        2.52950       -2.41850
F         -5.64770        3.90530       -1.52700
F         -6.13650        1.21170       -1.84520
Si        -5.73120        2.89030       -4.57060
Si        -4.77090        1.28850       -5.79580
F         -5.35930        1.34950       -7.37430
F         -5.12090       -0.21410       -5.11650
Si        -2.55870        1.60750       -5.80670
F         -2.12640        2.43530       -7.21010
F         -1.78140        0.11310       -5.78080
C         -7.57650        2.93980       -4.85640
S         -8.31440        1.33000       -4.42950
C        -10.01240        1.83580       -4.84530
H          2.57990        3.57960       -4.30600
H          2.86950        5.08230       -3.35240
H          2.44850        3.55950       -2.49340
H          0.20430        2.21050       -3.04120
H          0.33490        2.56830       -4.79080
H         -8.01330        3.73850       -4.22170
H         -7.76360        3.17010       -5.92570
H        -10.07360        2.12330       -5.91560
H        -10.32280        2.69020       -4.20840
H        -10.69880        0.98390       -4.66250
