60
mol49-A-2
C          4.47440       -0.10160        3.46630
S          2.89050        0.54840        2.85030
C          2.64880       -0.78750        1.63740
Si         1.05120       -0.54110        0.69710
Si         1.22400        1.36390       -0.45820
N          2.42380        1.15900       -1.76920
N          1.76010        2.68270        0.62540
Si        -0.76660        1.88730       -1.33000
N         -0.55880        2.40710       -3.02840
N         -1.50530        3.21280       -0.38220
Si         0.67000       -2.20990       -0.74410
N          0.22110       -3.68950        0.15720
N          2.14330       -2.51520       -1.71120
Si        -1.01590       -1.65190       -2.10450
N         -2.14440       -3.03330       -2.23760
N         -0.38460       -1.24200       -3.72760
Si        -2.10560        0.10070       -1.25750
Si        -2.58710       -0.37660        0.87110
N         -3.71930        0.83770        1.53720
N         -3.33260       -2.00110        0.94590
Si        -0.70240       -0.37180        2.07500
N         -0.58800        1.15820        2.99410
N         -0.72960       -1.75350        3.21110
C         -3.65690        0.38110       -2.26090
S         -4.49620        1.90110       -1.71130
C         -5.85890        1.75270       -2.90790
H          5.21680       -0.14190        2.64210
H          4.85680        0.57070        4.26130
H          4.33050       -1.11640        3.89260
H          3.48820       -0.79480        0.91170
H          2.60250       -1.76560        2.15980
H          2.11400        0.34380       -2.34200
H          3.32170        0.88090       -1.31440
H          1.05710        2.75190        1.39380
H          2.65580        2.37100        1.06220
H         -1.50420        2.68060       -3.37760
H          0.01990        3.27620       -3.00940
H         -1.56610        2.88070        0.60600
H         -0.82750        4.00710       -0.39300
H          1.08690       -4.03650        0.62500
H         -0.03920       -4.40870       -0.55360
H          1.94310       -3.34560       -2.31170
H          2.89120       -2.79980       -1.04010
H         -2.90370       -2.74110       -2.89230
H         -1.62150       -3.80540       -2.70760
H         -1.20820       -0.97590       -4.31190
H          0.19600       -0.38180       -3.62080
H         -4.64240        0.67340        1.07760
H         -3.84520        0.60870        2.54830
H         -4.19950       -1.96210        0.36470
H         -3.63690       -2.14920        1.93360
H         -1.37040        1.15500        3.68560
H          0.30020        1.11520        3.54170
H         -1.61920       -1.67970        3.75290
H          0.04630       -1.59930        3.89240
H         -4.32770       -0.49310       -2.12980
H         -3.37320        0.47440       -3.32970
H         -5.46080        1.77140       -3.94380
H         -6.55240        2.60790       -2.77430
H         -6.41600        0.80820       -2.73630
