36
mol46-E-0
C          2.30860        3.06440       -2.93600
S          0.58320        2.56670       -2.63640
C         -0.13430        3.44810       -4.06730
Si        -1.99830        3.22790       -4.19740
Si        -2.90200        5.20520       -4.71650
F         -2.85320        6.20590       -3.36070
F         -2.02950        5.91310       -5.97330
Si        -5.02520        4.91660       -5.35500
F         -5.98010        6.14940       -4.71480
F         -5.11780        4.94210       -7.03810
Si        -2.96920        2.52850       -2.30040
F         -2.39980        3.44130       -1.00250
F         -2.60580        0.90180       -2.04960
Si        -5.18620        2.76870       -2.45700
F         -5.66160        4.16880       -1.64730
F         -5.94420        1.42990       -1.76800
Si        -5.74830        2.94160       -4.61160
Si        -4.69840        1.33750       -5.75760
F         -5.33300        1.24330       -7.31650
F         -4.90950       -0.13690       -4.96810
Si        -2.51950        1.82450       -5.86270
F         -2.19290        2.58380       -7.33190
F         -1.62600        0.39990       -5.76230
C         -7.59890        2.82880       -4.83920
S         -8.19500        1.20040       -4.28140
C         -9.93850        1.54380       -4.67410
H          2.38670        4.16650       -3.03870
H          2.92940        2.74210       -2.07530
H          2.69060        2.56840       -3.84920
H          0.35030        3.13460       -5.01490
H          0.06840        4.52950       -3.92830
H         -8.07990        3.63360       -4.24550
H         -7.83300        2.96930       -5.91490
H        -10.05180        1.75070       -5.75860
H        -10.29790        2.41380       -4.08600
H        -10.55010        0.65620       -4.41220
