72
mol44-B-0
C         -3.33150       -2.54870       -5.15930
S         -2.53770       -2.56610       -3.52230
C         -2.10230       -0.80310       -3.55390
Si        -1.20890       -0.29320       -1.98910
Si        -2.61770       -0.41570       -0.19910
Ge        -3.63350       -2.49870        0.01340
F         -2.67180       -3.84180       -0.55510
F         -5.09260       -2.48050       -0.96330
F         -4.10570       -2.76220        1.68350
Ge        -4.52490        0.86920       -0.49820
F         -4.86600        1.05860       -2.20910
F         -5.87760        0.02210        0.23370
F         -4.42100        2.42740        0.28780
Si        -1.49270        0.21940        1.66870
Ge        -2.70820        1.68060        3.01140
F         -4.42300        1.33470        2.86600
F         -2.23800        1.38680        4.67750
F         -2.41160        3.37430        2.70270
Ge        -1.30040       -1.54340        3.16320
F         -1.41690       -3.10510        2.38590
F         -2.63240       -1.44450        4.30270
F          0.19740       -1.41050        4.06770
Si        -0.60610        1.87930       -2.33690
Ge        -2.38590        3.14990       -3.12990
F         -3.13860        2.29800       -4.46740
F         -3.61260        3.54360       -1.95000
F         -1.73810        4.66190       -3.74320
Ge         0.79210        2.12720       -4.16710
F          0.99350        3.84450       -4.47250
F          0.02220        1.41560       -5.57510
F          2.37470        1.42450       -3.94150
Si         0.30900        2.75430       -0.45750
Ge        -0.96330        4.59150        0.18070
F         -0.35230        5.28250        1.67280
F         -0.79110        5.80410       -1.07720
F         -2.66810        4.25920        0.34750
Ge         2.34390        3.83580       -0.79370
F          2.96300        3.66570       -2.42400
F          2.11190        5.55240       -0.50780
F          3.54080        3.28010        0.35930
Si         0.54020        1.05600        1.05940
Si         1.79300       -0.59950        0.11370
Ge         3.90360        0.13030       -0.50190
F          3.89370        1.27120       -1.82380
F          4.84410       -1.26870       -0.99270
F          4.69050        0.84670        0.89420
Ge         2.45620       -2.18130        1.68510
F          3.13510       -1.35000        3.07410
F          3.72270       -3.15980        0.96400
F          1.20200       -3.26630        2.23460
Si         0.68440       -1.52830       -1.63090
Ge         0.41530       -3.79520       -1.19440
F          2.01710       -4.51350       -1.17320
F         -0.32790       -4.14500        0.34520
F         -0.49850       -4.57050       -2.47560
Ge         1.93780       -1.69360       -3.58670
F          3.50360       -0.91460       -3.47960
F          1.04560       -1.05300       -4.95230
F          2.22990       -3.39350       -3.91460
C          1.50430        1.58550        2.57490
S          0.72630        3.01050        3.38930
C          1.97060        3.11840        4.71230
H         -3.70400       -3.56730       -5.39130
H         -2.59740       -2.24880       -5.93600
H         -4.18890       -1.84380       -5.15990
H         -1.44790       -0.59470       -4.42310
H         -3.02590       -0.19790       -3.64240
H          2.53640        1.84700        2.26860
H          1.54120        0.73320        3.28150
H          2.97490        3.30300        4.27720
H          1.71030        3.96070        5.38520
H          1.98300        2.17810        5.30180
