180
mol41-A-2
C         -2.96280       -3.78630       -4.43790
S         -1.46960       -2.97400       -3.78750
C         -2.29250       -2.29520       -2.32760
Si        -1.14220       -1.30360       -1.23590
Si         0.91520       -2.46090       -1.37220
Ge         0.65520       -4.83800       -1.27210
C          2.23480       -5.96820       -1.15580
C         -0.52570       -5.43140        0.11420
C         -0.18900       -5.56110       -2.86700
Ge         1.70370       -2.44930       -3.55050
C          0.47020       -2.87090       -4.99550
C          3.18900       -3.65970       -3.85940
C          2.33140       -0.67010       -3.73440
Si         2.47280       -1.35530        0.02460
Ge         3.50200       -3.09240        1.35530
C          2.44230       -4.49750        2.15410
C          4.64620       -2.54620        2.84260
C          4.69280       -4.10910        0.19150
Ge         4.66870       -0.65420       -0.71170
C          6.13240       -0.73810        0.58240
C          4.75760        1.24090       -0.96260
C          5.47670       -1.51900       -2.26450
Si        -2.00700       -1.21520        1.02180
Ge        -2.15530       -3.06480        2.52200
C         -3.16140       -2.53690        4.10290
C         -0.42010       -3.57770        3.13560
C         -3.02510       -4.75480        2.03840
Ge        -4.40110       -1.06640        0.93340
C         -5.23800        0.09510        2.24120
C         -5.40060       -2.71320        1.23930
C         -5.08280       -0.75490       -0.83800
Si        -0.61980        0.38270        2.11660
Ge         0.42690       -0.21430        4.20570
C          1.93320       -1.38160        4.03640
C         -0.58280       -0.94820        5.70840
C          1.24570        1.35670        5.02930
Ge        -1.87560        2.18220        3.20110
C         -3.50550        3.08370        2.58840
C         -2.55510        1.61540        4.94080
C         -0.74270        3.67220        3.73570
Si         1.25600        0.68710        0.58750
Si         0.71690        2.00460       -1.37840
Ge         0.24230        4.21960       -0.59160
C          1.58460        5.00660        0.59740
C         -0.01440        5.68940       -1.85680
C         -1.36250        4.26950        0.41240
Ge         2.31030        2.90260       -2.99090
C          3.65140        2.02400       -4.11920
C          3.47370        4.23320       -2.14500
C          1.31820        3.93590       -4.30010
Si        -1.05000        0.81790       -2.40730
Ge        -3.08340        2.04640       -2.32040
C         -3.83430        2.21440       -0.56270
C         -2.97130        3.86200       -3.00490
C         -4.49000        1.24700       -3.42750
Ge        -1.09780        0.71970       -4.85280
C          0.44970        0.52160       -6.02290
C         -2.39480       -0.55870       -5.56130
C         -1.76910        2.34160       -5.71150
C          2.40100        1.88030        1.46120
S          3.59710        1.07150        2.55320
C          4.38180        2.62370        3.08780
H         -3.32590       -4.55040       -3.71980
H         -2.71290       -4.28490       -5.39650
H         -3.76040       -3.03660       -4.61970
H         -3.10330       -1.62830       -2.66070
H         -2.72510       -3.11930       -1.74010
H          1.93350       -7.01510       -1.36390
H          2.98780       -5.67240       -1.90670
H          2.66170       -5.94000       -0.14180
H         -0.81570       -4.51710        0.63340
H         -0.01460       -6.14000        0.79640
H         -1.41480       -5.92730       -0.32350
H          0.57290       -5.69300       -3.65960
H         -1.00430       -4.90020       -3.20800
H         -0.61440       -6.55810       -2.63300
H         -0.39080       -2.19300       -4.95740
H          0.99570       -2.75140       -5.96420
H          0.11590       -3.91060       -4.94710
H          3.83730       -3.69620       -2.97170
H          2.80120       -4.67400       -4.07940
H          3.77580       -3.30310       -4.73030
H          1.48010        0.01880       -3.73530
H          2.91120       -0.41140       -2.84430
H          2.93950       -0.60470       -4.65790
H          3.02760       -5.43810        2.18560
H          2.18490       -4.23860        3.19660
H          1.54810       -4.64860        1.54280
H          5.67570       -2.92520        2.68680
H          4.66410       -1.45060        2.94860
H          4.26690       -2.98820        3.78560
H          4.78520       -5.15060        0.55840
H          5.70760       -3.68170        0.16270
H          4.27990       -4.10910       -0.82730
H          5.87640       -0.18500        1.50290
H          6.42580       -1.76940        0.82310
H          7.01890       -0.24460        0.13400
H          5.07450        1.74030       -0.02610
H          3.74340        1.54440       -1.21050
H          5.48470        1.49470       -1.75890
H          4.85640       -1.42820       -3.17040
H          6.44900       -1.02720       -2.47060
H          5.67480       -2.58480       -2.04740
H         -4.14460       -3.04040        4.13560
H         -3.32290       -1.44540        4.08590
H         -2.61350       -2.84960        5.01270
H          0.30310       -2.96180        2.57400
H         -0.33810       -3.41820        4.22110
H         -0.26570       -4.65760        2.95080
H         -3.19200       -4.83390        0.95510
H         -2.38980       -5.60380        2.36130
H         -3.99530       -4.85790        2.56120
H         -6.00580       -0.47410        2.80350
H         -4.47930        0.44780        2.95900
H         -5.74190        0.93660        1.72600
H         -5.36230       -3.01000        2.29870
H         -5.03780       -3.52040        0.57920
H         -6.46560       -2.52760        0.99040
H         -5.97460       -0.09800       -0.80210
H         -4.26450       -0.30710       -1.39620
H         -5.35830       -1.71220       -1.32310
H          1.72270       -2.36790        4.48710
H          2.11470       -1.45320        2.96310
H          2.81660       -0.95110        4.54700
H         -0.32940       -0.38050        6.62650
H         -0.30960       -2.00230        5.89560
H         -1.66300       -0.86490        5.54500
H          2.16920        1.06200        5.56680
H          0.55880        1.80050        5.77340
H          1.50660        2.10780        4.26740
H         -3.29370        4.03440        2.07280
H         -4.11440        2.44160        1.95580
H         -4.12760        3.35090        3.46520
H         -3.16140        0.69910        4.84360
H         -1.72620        1.47150        5.65330
H         -3.19850        2.41180        5.36520
H          0.16800        3.68670        3.12350
H         -1.29390        4.62580        3.61430
H         -0.47280        3.58880        4.80470
H          1.60450        6.10400        0.44040
H          1.32730        4.82930        1.65370
H          2.59500        4.61600        0.40550
H         -0.33360        6.58570       -1.28680
H         -0.79830        5.46950       -2.59240
H          0.92170        5.94480       -2.38030
H         -2.15030        4.79360       -0.15400
H         -1.62620        3.22210        0.61340
H         -1.18340        4.84340        1.33720
H          3.19910        1.62050       -5.03820
H          4.21180        1.23770       -3.59260
H          4.38740        2.78400       -4.44950
H          4.26110        4.54240       -2.86120
H          2.91160        5.14010       -1.87080
H          3.96730        3.82280       -1.24630
H          1.73660        4.96010       -4.36520
H          0.26390        3.97990       -3.98830
H          1.39290        3.47320       -5.30120
H         -3.24040        1.57610        0.11780
H         -4.89720        1.91510       -0.56390
H         -3.81890        3.27320       -0.25470
H         -2.04140        3.97940       -3.57970
H         -3.83590        4.06160       -3.66980
H         -3.00400        4.59620       -2.18200
H         -5.46620        1.35000       -2.91250
H         -4.57510        1.76320       -4.40070
H         -4.28690        0.17570       -3.60660
H          1.19040        1.29650       -5.79150
H          0.12450        0.66700       -7.07300
H          0.90270       -0.47470       -5.96540
H         -3.34930       -0.04230       -5.78440
H         -2.58850       -1.38390       -4.86270
H         -2.00550       -0.98120       -6.51000
H         -1.08600        3.19130       -5.55580
H         -2.78310        2.59450       -5.37130
H         -1.83240        2.16190       -6.80420
H          1.78210        2.57760        2.04360
H          2.95060        2.45430        0.70150
H          5.18610        2.38910        3.81450
H          4.82640        3.14720        2.21620
H          3.63480        3.28190        3.57830
