60
mol49-C-2
C         -4.89230       -4.32320        1.60320
S         -4.36710       -2.62720        1.20440
C         -2.58940       -3.02220        1.21380
Si        -1.59300       -1.49000        0.83050
Si        -1.89180        0.00740        2.45620
N         -3.63490        0.14730        2.83260
N         -0.99590       -0.52010        3.91190
Si        -1.10960        1.98690        1.77220
N         -2.46970        2.97360        1.15660
N         -0.31740        2.82570        3.13900
Si        -2.24610       -0.54790       -1.08830
N         -2.40170       -1.78390       -2.37220
N         -3.82750        0.24580       -0.82780
Si        -0.73880        0.99130       -1.69070
N         -1.58330        2.38280       -2.43280
N          0.40890        0.28660       -2.86740
Si         0.37370        1.64460        0.13490
Si         1.72140       -0.01620        0.78060
N          2.28390        0.31060        2.44670
N          3.12950       -0.12500       -0.31750
Si         0.59130       -1.94450        0.74920
N          1.04410       -2.92380        2.17560
N          0.97030       -2.85040       -0.74610
C          1.41920        3.16000       -0.18950
S          0.36260        4.59050       -0.57910
C          1.75490        5.74100       -0.80090
H         -5.99960       -4.35500        1.66040
H         -4.47290       -4.63190        2.58350
H         -4.55310       -5.02360        0.81190
H         -2.28890       -3.40120        2.21260
H         -2.36860       -3.78950        0.44290
H         -3.94180       -0.78390        3.19220
H         -3.71890        0.82030        3.62660
H         -1.40100       -1.43870        4.19920
H         -1.22220        0.16160        4.66990
H         -2.09980        3.93570        0.99310
H         -3.16350        3.04890        1.93330
H          0.00160        3.75300        2.77990
H         -1.06070        3.01490        3.84780
H         -1.45370       -2.19600       -2.51630
H         -2.64610       -1.27590       -3.25130
H         -4.13960        0.61040       -1.75530
H         -4.50000       -0.50530       -0.55570
H         -0.84900        2.98360       -2.86870
H         -2.15960        2.00170       -3.21580
H         -0.13860        0.06470       -3.72840
H          1.08190        1.04330       -3.12250
H          2.80910        1.21260        2.41640
H          2.97560       -0.43490        2.68360
H          2.75260       -0.25250       -1.28270
H          3.60050        0.80670       -0.29840
H          0.52560       -3.82700        2.09760
H          2.05920       -3.14840        2.07770
H          1.99190       -3.06440       -0.71760
H          0.82540       -2.19250       -1.54300
H          2.09680        2.94600       -1.04180
H          2.02100        3.37310        0.71830
H          2.41170        5.39070       -1.62410
H          2.33950        5.81820        0.13940
H          1.35780        6.74360       -1.06030
