36
mol40-D-0
C         -1.02520        9.28070        2.97240
S          0.02370        7.94890        2.31170
C         -0.37480        6.77680        3.64630
Si         0.52150        5.15390        3.39500
Si         2.73370        5.35570        3.71460
Ge         3.13820        5.83470        5.94120
Ge         3.61800        7.09570        2.47020
Si         3.74010        3.43010        3.13660
Ge         5.42990        3.01430        4.66580
Ge         4.72540        3.64420        1.05470
Si         0.17640        4.31810        1.34480
Ge        -2.05820        4.50640        0.77630
Ge         1.40360        5.49280       -0.22710
Si         0.81730        2.17060        1.34400
Ge        -1.03050        0.78830        1.49830
Ge         1.88670        1.66700       -0.64580
Si         2.20380        1.77400        3.06890
Si         1.00680        1.87630        4.96320
Ge         2.41350        1.97850        6.79650
Ge        -0.29900       -0.02080        5.19050
Si        -0.29030        3.70490        4.90250
Ge        -0.36810        4.70170        6.98930
Ge        -2.45820        3.12810        4.33910
C          2.86250        0.02590        2.82740
S          4.68520       -0.03880        2.83190
C          4.80300       -1.83860        2.57910
H         -0.67960        9.57120        3.98620
H         -2.08280        8.94680        3.01700
H         -0.95500       10.16220        2.30290
H         -1.46620        6.57580        3.65230
H         -0.07200        7.19990        4.62650
H          2.51780       -0.33810        1.83880
H          2.42340       -0.64680        3.59220
H          4.41430       -2.10580        1.57470
H          5.86680       -2.14510        2.64700
H          4.22430       -2.37440        3.35800
