36
mol47-D-2
C        -10.79020       -2.33020        2.56990
S         -9.60980       -2.98220        1.34520
C         -9.10880       -1.35720        0.68020
Si        -7.83750       -1.56530       -0.67650
Si        -5.98520       -2.55900        0.08740
Cl        -6.50720       -4.17670        1.30780
Cl        -4.86500       -1.18460        1.20000
Si        -4.76950       -3.27700       -1.64930
Cl        -5.09340       -5.32630       -1.92560
Cl        -2.73700       -2.93970       -1.28310
Si        -7.25450        0.37610       -1.62270
Cl        -8.87910        1.13060       -2.70410
Cl        -6.66710        1.77820       -0.18330
Si        -5.52900        0.00560       -2.99670
Cl        -5.78150        1.10940       -4.75670
Cl        -3.75000        0.59650       -2.06580
Si        -5.39550       -2.16930       -3.48880
Si        -7.43620       -2.87480       -4.07370
Cl        -8.22130       -1.58630       -5.52350
Cl        -7.37830       -4.82400       -4.83530
Si        -8.73910       -2.86270       -2.25580
Cl        -8.91950       -4.80890       -1.50760
Cl       -10.63880       -2.14160       -2.75670
C         -4.14030       -2.36380       -4.86220
S         -3.91710       -4.12640       -5.28310
C         -2.67860       -3.85390       -6.59090
H        -11.19770       -3.17310        3.16460
H        -10.28130       -1.62010        3.25430
H        -11.62680       -1.81680        2.05190
H        -10.00230       -0.86520        0.24480
H         -8.69150       -0.68710        1.46000
H         -3.17030       -1.96270       -4.50400
H         -4.46550       -1.75530       -5.73130
H         -2.42310       -4.82760       -7.05640
H         -1.75950       -3.41080       -6.15410
H         -3.08590       -3.17790       -7.37130
