180
mol4-E-2
C          0.81580        5.28300        1.76980
S          1.00250        4.12350        0.37800
C          0.30530        2.63230        1.18810
C          0.11540        1.16260        0.60720
C          1.56330        0.96420       -0.34420
C          2.95410        1.33650        0.49780
C          3.49740        2.41370        1.57310
C          4.95610        2.05620        1.94530
C          3.48600        3.91480        1.24500
C          1.82510        1.96340       -1.63300
C          2.31710        3.46290       -1.79730
C          1.63100        4.13650       -3.01190
C          3.83990        3.59640       -2.09470
C          1.54380       -0.65230       -0.99840
C          1.91220       -0.75860       -2.63020
C          1.73280       -1.92560       -3.71380
C          2.82090       -3.00790       -3.80120
C          1.63040       -1.31660       -5.13440
C          2.84590       -1.50770       -0.47920
C          4.39370       -1.16480       -0.74160
C          5.24780       -1.38470        0.53440
C          5.09950       -1.99230       -1.82900
C         -1.31580        1.10360       -0.34120
C         -1.54600        2.36640       -1.33890
C         -2.17620        3.79610       -1.06810
C         -3.30000        4.15510       -2.07770
C         -1.17630        4.97300       -1.13350
C         -2.62550        1.20370        0.60110
C         -4.13570        1.56710        0.22780
C         -4.65210        2.86390        0.93330
C         -5.14110        0.44910        0.62480
C         -1.28800       -0.35630       -1.21210
C         -1.08090       -0.09400       -2.80850
C         -2.15090        0.34460       -3.90250
C         -1.71060        1.61630       -4.67700
C         -2.36460       -0.72880       -4.99930
C         -2.76430       -1.04890       -1.20590
C         -3.35900       -2.28470       -2.02010
C         -3.78450       -3.47900       -1.11840
C         -4.65380       -1.89360       -2.77990
C         -0.01810       -1.33070       -0.57980
C         -0.17670       -1.56110        1.14380
C         -1.62120       -2.21200        1.60660
C         -1.80870       -2.99530        2.96430
C         -2.02940       -4.51620        2.75010
C         -3.03300       -2.51630        3.78160
C          0.75090       -2.88690        1.47790
C          1.82630       -3.46860        2.48570
C          2.79370       -4.44070        1.75340
C          1.27510       -4.28150        3.68360
C          0.06250       -0.03610        1.89110
C          1.40810       -0.06200        2.75960
C          1.73250       -0.70510        4.17720
C          3.27570       -0.84560        4.34520
C          1.29340        0.00500        5.46350
C         -1.00290        0.22990        3.11400
C         -1.40130        1.50780        3.98370
C         -2.40990        1.11210        5.08690
C         -0.32700        2.41940        4.61240
C         -0.25860       -2.76540       -1.29610
S          0.92020       -4.17810       -1.46470
C         -0.21420       -5.27750       -2.37390
H          1.51180        5.01230        2.58860
H         -0.23120        5.29040        2.13670
H          1.07150        6.30300        1.41800
H          0.95840        2.52530        2.03650
H         -0.62420        2.99580        1.57140
H          3.72440        1.47590       -0.25140
H          3.29040        0.43770        0.94900
H          3.01110        2.36700        2.54950
H          4.99720        1.06980        2.44830
H          5.60390        2.03410        1.04260
H          5.38260        2.78920        2.66430
H          3.86020        4.48430        2.12380
H          4.16090        4.18160        0.41860
H          2.47910        4.30810        1.09440
H          2.67250        1.49260       -2.14320
H          1.08130        1.86130       -2.37090
H          2.06450        4.08880       -0.94450
H          1.86830        5.22210       -3.03890
H          1.96710        3.67380       -3.96530
H          0.53800        4.03040       -2.99060
H          4.13780        4.66690       -2.07300
H          4.08430        3.19160       -3.10110
H          4.49050        3.05500       -1.39170
H          2.96950       -0.48330       -2.76370
H          1.48730        0.06420       -3.16570
H          0.80490       -2.47310       -3.61110
H          3.08530       -3.42760       -2.82580
H          2.43960       -3.86130       -4.40390
H          3.72440       -2.64480       -4.33080
H          2.56550       -0.77440       -5.39370
H          0.78950       -0.59930       -5.20530
H          1.45360       -2.10950       -5.89370
H          2.79680       -1.61290        0.58990
H          2.75830       -2.52530       -0.85610
H          4.53480       -0.13790       -1.09020
H          6.25600       -0.93470        0.40720
H          5.36680       -2.47030        0.74110
H          4.81030       -0.94270        1.43840
H          4.84250       -1.62450       -2.83230
H          6.20150       -1.84930       -1.77790
H          4.91640       -3.07830       -1.69860
H         -2.28830        1.95630       -2.01470
H         -0.68730        2.57620       -1.93230
H         -2.62930        3.82570       -0.08620
H         -4.10750        3.40420       -2.11710
H         -2.89100        4.24830       -3.10580
H         -3.76720        5.12460       -1.79930
H         -1.55790        5.82120       -0.52540
H         -0.18110        4.71410       -0.75830
H         -1.04780        5.35230       -2.16890
H         -2.73090        0.28340        1.05920
H         -2.37580        1.82170        1.42340
H         -4.24190        1.69060       -0.85980
H         -4.90620        3.63800        0.18140
H         -5.58110        2.70690        1.52330
H         -3.93050        3.29310        1.65680
H         -5.02310        0.18120        1.69720
H         -6.18650        0.79040        0.46070
H         -5.05630       -0.46350        0.01810
H         -0.58650       -0.92660       -3.27150
H         -0.37890        0.68120       -2.87270
H         -3.12500        0.58930       -3.45140
H         -1.57960        2.49770       -4.02970
H         -2.47500        1.88960       -5.43630
H         -0.74360        1.44350       -5.19680
H         -1.48360       -0.79860       -5.67040
H         -2.52920       -1.73810       -4.60650
H         -3.24720       -0.46400       -5.62030
H         -3.08550       -1.25740       -0.21990
H         -3.41630       -0.21870       -1.48890
H         -2.66150       -2.68450       -2.76000
H         -4.42560       -4.18990       -1.68380
H         -2.94790       -4.10170       -0.77010
H         -4.37050       -3.13170       -0.24030
H         -4.53310       -1.02120       -3.43680
H         -4.98850       -2.73190       -3.42850
H         -5.47080       -1.65540       -2.06540
H         -2.44220       -1.54960        1.61290
H         -1.99690       -2.90680        0.86900
H         -0.93670       -2.81780        3.59690
H         -3.03020       -4.70030        2.30210
H         -1.97960       -5.04720        3.72480
H         -1.29890       -4.99510        2.07910
H         -2.88650       -1.51240        4.20320
H         -3.95130       -2.51440        3.15500
H         -3.20690       -3.18360        4.65350
H          0.15940       -3.78100        1.24090
H          1.31810       -2.95540        0.61610
H          2.49190       -2.69380        2.82160
H          2.23300       -5.29460        1.31540
H          3.34770       -3.93100        0.94140
H          3.56300       -4.83910        2.44980
H          0.73680       -3.69910        4.44430
H          0.63480       -5.11380        3.33190
H          2.11620       -4.73700        4.24960
H          1.71550        0.93820        2.91160
H          2.08980       -0.57780        2.13550
H          1.24390       -1.67480        4.23290
H          3.50880       -1.57340        5.15210
H          3.80410       -1.17830        3.43570
H          3.73430        0.13340        4.60590
H          1.68080       -0.54920        6.34670
H          0.20840       -0.01110        5.61500
H          1.73080        1.02140        5.52440
H         -0.81920       -0.57530        3.83730
H         -1.98810       -0.05660        2.83610
H         -2.03890        2.16250        3.39050
H         -2.69320        1.99820        5.69630
H         -3.34720        0.72290        4.63410
H         -1.99800        0.33920        5.76620
H         -0.16820        2.20200        5.68770
H          0.63170        2.40080        4.08280
H         -0.68500        3.47040        4.61060
H         -0.68220       -2.66030       -2.27360
H         -1.06440       -3.25960       -0.81120
H         -0.52510       -4.80500       -3.32870
H         -1.10740       -5.50170       -1.75540
H          0.31100       -6.22760       -2.60090
