36
mol46-E-1
C          2.42700        3.25030       -4.17750
S          0.80740        2.91030       -4.93650
C         -0.19870        3.35790       -3.47820
Si        -2.04550        3.16240       -3.78070
Si        -2.91500        5.19070       -4.13520
F         -2.97900        6.02570       -2.67220
F         -1.94920        6.03690       -5.22740
Si        -4.97930        4.98780       -4.96960
F         -5.98830        6.14140       -4.26740
F         -4.93830        5.21030       -6.64010
Si        -3.16020        2.25010       -2.06150
F         -2.70010        3.00250       -0.62480
F         -2.80960        0.60370       -1.97450
Si        -5.35900        2.51660       -2.36440
F         -5.90410        3.81440       -1.43690
F         -6.16250        1.10960       -1.89900
Si        -5.74920        2.94250       -4.52180
Si        -4.60370        1.47900       -5.76050
F         -5.11210        1.57040       -7.36520
F         -4.86930       -0.07670       -5.16800
Si        -2.42580        1.96550       -5.63470
F         -1.98750        2.89000       -6.97450
F         -1.53590        0.53510       -5.63090
C         -7.57540        2.86510       -4.90730
S         -8.20570        1.18520       -4.59270
C         -9.91420        1.57960       -5.07970
H          2.52910        2.71100       -3.21310
H          3.22510        2.90390       -4.86530
H          2.54800        4.33950       -4.02000
H          0.02170        4.39190       -3.14160
H          0.08270        2.66970       -2.65530
H         -8.10600        3.59700       -4.26360
H         -7.72410        3.13130       -5.97430
H         -9.94220        1.91250       -6.13810
H        -10.32350        2.37650       -4.42430
H        -10.54010        0.67010       -4.97270
