72
mol45-E-2
C          2.10650       -2.66720        5.02220
S          1.07810       -1.34260        4.31680
C          1.43610       -1.78310        2.59720
Si         0.56970       -0.66050        1.37760
Si         1.87350       -0.76240       -0.56000
Ge         2.26720       -3.00680       -1.17770
Cl         3.78870       -3.82440        0.12970
Cl         0.70040       -4.45530       -1.00330
Cl         3.05980       -3.18680       -3.18730
Ge         4.16530       -0.25100       -0.37100
Cl         4.74470        1.77500       -0.79580
Cl         5.32350       -1.30100       -1.86840
Cl         5.01140       -0.99120        1.48150
Si         0.88560        0.62770       -2.10460
Ge         0.31400       -0.59580       -4.03470
Cl        -1.19020        0.41690       -5.22110
Cl         1.98700       -0.71800       -5.40320
Cl        -0.11000       -2.68610       -3.76710
Ge         2.26610        2.13750       -3.28280
Cl         2.79130        4.01730       -2.40290
Cl         4.11590        1.22360       -3.94790
Cl         1.23340        2.75270       -5.08490
Si        -1.68470       -1.32310        1.01800
Ge        -2.40490       -3.42530        0.17240
Cl        -1.61960       -5.15400        1.22260
Cl        -2.29830       -3.98020       -1.89560
Cl        -4.54520       -3.49060        0.48950
Ge        -2.64360       -1.69330        3.18330
Cl        -3.31310       -3.72560        3.51680
Cl        -4.43470       -0.64320        3.77280
Cl        -1.20940       -1.58320        4.78310
Si        -2.57060        0.28590       -0.41770
Ge        -3.71730       -0.40650       -2.41300
Cl        -4.22060        1.32990       -3.60640
Cl        -5.63420       -1.30100       -1.97070
Cl        -3.06330       -1.78540       -3.92370
Ge        -4.55380        1.15570        0.53900
Cl        -5.66800        2.36280       -0.87300
Cl        -5.95710       -0.42090        1.02330
Cl        -4.44310        2.29840        2.34500
Si        -0.82270        1.77280       -0.99310
Si        -0.04020        3.04480        0.85620
Ge        -1.81100        4.54510        1.45430
Cl        -3.45540        4.52210        0.06730
Cl        -1.29250        6.63990        1.27370
Cl        -2.59050        4.55920        3.46680
Ge         1.59640        4.76760        0.77430
Cl         1.51980        5.75080        2.70140
Cl         3.70250        4.40650        0.60240
Cl         1.20980        6.33120       -0.67950
Si         0.75580        1.47300        2.38310
Ge        -0.27700        1.85190        4.47930
Cl        -0.00380        3.89630        5.13900
Cl         0.66900        0.71440        6.06170
Cl        -2.38280        1.53510        4.69270
Ge         2.95880        1.72810        3.30940
Cl         3.05930        3.37450        4.70550
Cl         3.44920       -0.00300        4.51570
Cl         4.81290        2.06860        2.28100
C         -1.60110        2.85900       -2.30190
S         -0.72590        4.43110       -2.50540
C         -1.83460        5.04560       -3.81030
H          3.16240       -2.54030        4.70430
H          2.05510       -2.61350        6.12870
H          1.73090       -3.65840        4.69240
H          1.09070       -2.81560        2.41500
H          2.52470       -1.73640        2.41900
H         -1.57520        2.31060       -3.25950
H         -2.65410        3.05050       -2.03110
H         -1.80720        4.36430       -4.68620
H         -2.87260        5.12070       -3.42440
H         -1.49520        6.05270       -4.12770
