36
mol40-A-2
C         -3.93760       -1.74020        3.54860
S         -2.88130       -0.55780        2.65590
C         -2.23490       -1.79570        1.48850
Si        -1.02970       -1.01310        0.29060
Si        -2.05100        0.42070       -1.10610
Ge        -3.24370       -0.73320       -2.71910
Ge        -3.55290        1.72810        0.07190
Si        -0.49420        1.70080       -2.09440
Ge        -1.02270        2.05450       -4.31880
Ge        -0.41780        3.76790       -1.05660
Si         0.47680        0.11930        1.50780
Ge         1.24890       -1.20310        3.24230
Ge        -0.53560        1.97000        2.45670
Si         2.18270        0.75530        0.19700
Ge         2.86300        2.88770        0.78660
Ge         3.99000       -0.65590        0.49880
Si         1.49640        0.67020       -1.93860
Si         1.23780       -1.48330       -2.51260
Ge         3.30590       -2.48480       -2.78310
Ge         0.14440       -1.61090       -4.54690
Si         0.05880       -2.55050       -0.93010
Ge        -1.40760       -4.03970       -1.92480
Ge         1.47350       -3.77550        0.42870
C          2.75590        1.40820       -3.10840
S          2.85440        3.21360       -2.89670
C          4.13120        3.43840       -4.17340
H         -4.68320       -2.18380        2.85640
H         -3.31640       -2.54320        3.99730
H         -4.47370       -1.20570        4.35930
H         -1.70310       -2.59340        2.04780
H         -3.06850       -2.24400        0.90920
H          2.44810        1.17120       -4.14800
H          3.74380        0.94670       -2.90160
H          4.38430        4.51590       -4.24590
H          3.75220        3.09130       -5.15710
H          5.04610        2.87190       -3.90170
