72
mol44-E-1
C          5.16780       -2.99580        2.46420
S          3.64550       -2.01490        2.63930
C          3.20660       -2.11330        0.87970
Si         1.61160       -1.19950        0.52240
Si         1.72910        0.93550        1.31760
Ge         3.59240        2.09140        0.53810
F          4.12880        1.62170       -1.05680
F          3.28240        3.81860        0.58320
F          4.92350        1.75350        1.63230
Ge         2.20820        0.99840        3.58580
F          3.24400        2.38320        3.88960
F          0.78100        1.21020        4.57300
F          3.08260       -0.44700        4.06090
Si        -0.22760        1.99740        0.86900
Ge         0.10030        3.75620       -0.60650
F          0.32770        5.22350        0.33060
F         -1.31840        3.97270       -1.61640
F          1.53340        3.55760       -1.58800
Ge        -1.04100        3.21180        2.67990
F          0.29810        3.80790        3.64560
F         -2.16940        2.34470        3.69310
F         -1.90670        4.60030        2.04270
Si         0.00580       -2.35010        1.66330
Ge         0.64340       -2.76700        3.86120
F          0.59830       -1.38690        4.93150
F          2.26750       -3.43300        3.86340
F         -0.44290       -3.98000        4.51710
Ge        -0.16730       -4.55280        0.96710
F         -0.78810       -4.72910       -0.65550
F         -1.25410       -5.38880        2.06360
F          1.40970       -5.31500        1.08510
Si        -1.98190       -1.26990        1.53160
Ge        -3.76820       -2.62050        0.89220
F         -4.67440       -1.87660       -0.41020
F         -4.86150       -2.77430        2.25740
F         -3.28760       -4.24180        0.43370
Ge        -2.67800       -0.76680        3.69120
F         -2.98410       -2.29140        4.50610
F         -1.49740        0.09840        4.64110
F         -4.18310        0.13400        3.66490
Si        -1.72960        0.47600        0.07330
Si        -0.99690       -0.34450       -1.92530
Ge        -1.10910        1.25860       -3.60700
F          0.10340        2.51410       -3.53050
F         -0.92350        0.43800       -5.14780
F         -2.69840        2.00320       -3.57500
Ge        -2.47490       -1.86940       -2.85090
F         -1.92530       -2.24640       -4.47520
F         -2.59400       -3.36370       -1.95520
F         -4.05980       -1.12510       -2.97670
Si         1.08190       -1.21920       -1.70410
Ge         1.32100       -3.36180       -2.58470
F          2.08370       -4.42930       -1.42300
F          2.38600       -3.27170       -3.97760
F         -0.18780       -4.06160       -3.13610
Ge         2.50330       -0.08470       -3.15110
F          1.97470       -0.44470       -4.78620
F          2.47460        1.65060       -2.96960
F          4.15080       -0.66400       -2.98510
C         -3.35780        1.31490       -0.31660
S         -4.17240        1.91180        1.19290
C         -5.61250        2.59880        0.31850
H          4.92580       -4.01140        2.08730
H          5.86770       -2.49210        1.76540
H          5.65480       -3.08760        3.45640
H          4.01660       -1.67150        0.26660
H          3.07340       -3.17500        0.59290
H         -4.01670        0.59190       -0.83670
H         -3.15760        2.17150       -0.98970
H         -6.30450        3.04860        1.05940
H         -5.28680        3.38600       -0.39300
H         -6.14570        1.79400       -0.22910
