36
mol47-B-1
C          5.33870        2.92170        0.06490
S          3.90540        1.79940        0.00210
C          4.69170        0.43390        0.92460
Si         3.50920       -1.00440        1.10240
Si         2.92410       -1.83370       -0.88980
Cl         2.48670       -0.26650       -2.20560
Cl         4.50660       -2.96550       -1.66190
Si         1.12530       -3.14300       -0.64000
Cl        -0.59950       -2.08360       -1.17080
Cl         1.31580       -4.81410       -1.88580
Si         1.66450       -0.24700        2.10680
Cl         2.19110        0.86280        3.80120
Cl         0.61280        0.98050        0.77770
Si         0.38780       -1.97920        2.70760
Cl         0.66740       -2.39390        4.73980
Cl        -1.62690       -1.52800        2.36560
Si         0.97350       -3.76560        1.50530
Si         2.98780       -4.43720        2.20630
Cl         2.81360       -5.35410        4.07920
Cl         3.77540       -5.80880        0.83490
Si         4.35180       -2.66720        2.34570
Cl         6.24700       -3.23610        1.66250
Cl         4.49600       -2.03250        4.33430
C         -0.32220       -5.08930        1.75870
S          0.18780       -6.64140        0.95480
C         -1.30340       -7.55760        1.45260
H          6.22630        2.43670       -0.39210
H          5.10140        3.84450       -0.50270
H          5.56040        3.19300        1.11810
H          4.95010        0.79850        1.93980
H          5.62170        0.07080        0.44030
H         -0.44620       -5.25510        2.84900
H         -1.28070       -4.73410        1.32660
H         -1.37790       -7.59250        2.55950
H         -1.23740       -8.59460        1.06420
H         -2.20790       -7.07270        1.03000
