72
mol42-A-0
C         -0.26640        6.05270        1.37360
S         -0.83530        4.34550        1.64220
C          0.25820        3.62840        0.38140
Si         0.03920        1.77150        0.26150
Si        -2.13210        1.16920       -0.14100
Si        -3.66560        1.58900        1.44900
F         -3.62150        3.20610        1.91630
F         -3.49800        0.61140        2.79810
F         -5.18680        1.27840        0.79190
Si        -3.00840        2.45400       -1.77560
F         -3.38140        1.57430       -3.15940
F         -1.95020        3.70020       -2.17190
F         -4.43720        3.16580       -1.23270
Si        -2.15440       -1.06130       -0.55410
Si        -3.76990       -2.15430        0.56730
F         -3.63420       -3.80430        0.25040
F         -3.73690       -1.91880        2.22660
F         -5.26720       -1.62560        0.00160
Si        -2.91910       -1.52490       -2.60710
F         -2.03420       -0.76810       -3.81210
F         -4.51810       -1.00210       -2.71810
F         -2.89140       -3.19280       -2.84860
Si         0.82800        0.77350        2.15260
Si        -0.06350        1.63060        4.03040
F          0.75650        3.05530        4.40720
F         -1.68980        2.00940        3.89170
F          0.15460        0.54030        5.29740
Si         2.96750        1.28060        2.58850
F          4.02190        0.12780        1.97600
F          3.33610        2.80320        1.96720
F          3.19100        1.32160        4.25950
Si         0.55520       -1.46910        1.97100
Si        -0.86710       -2.22510        3.52990
F         -1.66190       -3.59970        2.96560
F          0.00640       -2.64660        4.90960
F         -1.97770       -1.05280        3.98600
Si         2.35760       -2.64230        2.62670
F          1.84790       -4.17470        3.11270
F          3.49980       -2.85310        1.41900
F          3.07020       -1.87480        3.94760
Si        -0.10030       -1.96600       -0.15460
Si         1.37490       -1.12230       -1.68800
Si         3.52780       -1.75700       -1.55500
F          4.32210       -1.11310       -0.22900
F          3.66060       -3.43530       -1.53080
F          4.31700       -1.19230       -2.93380
Si         0.92570       -1.94710       -3.73930
F          0.41410       -0.76050       -4.81550
F         -0.24010       -3.15600       -3.64220
F          2.31700       -2.64590       -4.38650
Si         1.30750        1.13950       -1.52430
Si         0.64610        2.09780       -3.43710
F          0.60360        3.77080       -3.23660
F         -0.85530        1.55490       -3.94620
F          1.77320        1.73870       -4.63850
Si         3.34800        2.08490       -1.46320
F          4.34650        1.49160       -0.25450
F          3.17340        3.74850       -1.25510
F          4.11050        1.81120       -2.94170
C         -0.34020       -3.81580       -0.33220
S          1.24220       -4.70240       -0.23360
C          0.49920       -6.34910       -0.44900
H          0.82070        6.12990        1.58420
H         -0.46980        6.36230        0.32730
H         -0.81440        6.72860        2.06120
H          0.03750        4.08070       -0.60510
H          1.31310        3.83970        0.64580
H         -1.00730       -4.16160        0.48190
H         -0.82440       -4.02330       -1.30620
H          1.30240       -7.11370       -0.42680
H         -0.02480       -6.40640       -1.42560
H         -0.21600       -6.55530        0.37440
