72
mol45-A-2
C          3.06370       -4.57390       -2.74280
S          3.11140       -2.97450       -1.87740
C          1.32020       -2.89510       -1.62330
Si         0.79560       -1.34520       -0.71740
Si         2.52630       -0.92180        0.79600
Ge         4.71390       -0.74110       -0.05860
Cl         5.41750        1.23920       -0.51080
Cl         5.07370       -2.14400       -1.67050
Cl         6.17900       -1.33840        1.41890
Ge         3.01410       -2.85510        2.06010
Cl         4.15920       -4.21600        0.82340
Cl         1.42400       -4.10960        2.75400
Cl         4.26470       -2.42830        3.77850
Si         1.96720        1.00030        1.93040
Ge         1.85490        0.56310        4.24240
Cl         0.70120        2.06430        5.29670
Cl         1.33870       -1.44040        4.82610
Cl         3.80600        0.73830        5.16370
Ge         3.62000        2.66900        2.16950
Cl         3.95340        4.07870        0.59310
Cl         5.55770        1.84820        2.68990
Cl         3.06480        3.95720        3.82030
Si         0.77430        0.29450       -2.42270
Ge        -0.72640        0.04940       -4.23710
Cl        -0.21230       -1.64480       -5.48550
Cl        -0.58110        1.71310       -5.61550
Cl        -2.82700       -0.10380       -3.85800
Ge         2.69320       -0.00370       -3.83880
Cl         2.84440       -2.08030       -4.43650
Cl         2.48530        1.05740       -5.70990
Cl         4.74690        0.47140       -3.42930
Si         0.40080        2.36110       -1.41040
Ge        -1.43290        3.74540       -2.09310
Cl        -2.69410        4.35870       -0.46160
Cl        -2.67460        3.16090       -3.75870
Cl        -0.84590        5.71410       -2.77810
Ge         2.04150        3.83400       -2.30000
Cl         2.04750        5.82660       -1.44120
Cl         1.52090        4.11370       -4.38260
Cl         4.11950        3.33830       -2.47910
Si         0.06350        1.87280        0.89150
Si        -1.80000        0.46610        1.27340
Ge        -3.93830        1.16110        0.53250
Cl        -4.24490        1.61160       -1.53710
Cl        -4.65550        2.88020        1.63820
Cl        -5.44700       -0.33430        0.95330
Ge        -2.44420        0.60670        3.58450
Cl        -1.47150       -0.24240        5.30030
Cl        -4.42810       -0.18340        3.91670
Cl        -2.61120        2.68530        4.17130
Si        -1.31770       -1.61390        0.33730
Ge        -1.85270       -3.22350        2.00350
Cl        -4.00720       -3.17260        2.20750
Cl        -1.26100       -3.05790        4.05730
Cl        -1.37760       -5.27560        1.48240
Ge        -2.77790       -2.59110       -1.29290
Cl        -4.63770       -1.62340       -1.80520
Cl        -3.54700       -4.53740       -0.73570
Cl        -1.77040       -3.17320       -3.10250
C         -0.35500        3.40960        1.87190
S          0.57340        4.86040        1.31300
C         -0.17560        5.98820        2.52810
H          2.45130       -4.49070       -3.66480
H          4.09700       -4.86380       -3.02280
H          2.63850       -5.35450       -2.07800
H          0.98530       -3.77770       -1.05060
H          0.82050       -2.90040       -2.60750
H         -1.43840        3.60560        1.78920
H         -0.10930        3.21600        2.93050
H          0.04920        5.64240        3.55870
H          0.24970        7.00290        2.38880
H         -1.27440        6.03480        2.37820
