180
mol41-A-1
C         -4.32810       -2.77900       -3.93610
S         -3.61310       -1.39220       -2.99910
C         -2.22070       -2.34900       -2.35500
Si        -1.08960       -1.34310       -1.25630
Si         0.97920       -2.48240       -1.36900
Ge         0.73950       -4.86140       -1.26240
C          2.32800       -5.97700       -1.12710
C         -0.44900       -5.46040        0.11490
C         -0.08320       -5.59780       -2.86250
Ge         1.78810       -2.47170       -3.53980
C          0.57200       -2.90960       -4.99470
C          3.28700       -3.66990       -3.83030
C          2.40160       -0.68770       -3.72440
Si         2.51370       -1.35790        0.03830
Ge         3.54580       -3.08090        1.38500
C          2.49120       -4.49250        2.17910
C          4.67100       -2.51910        2.88090
C          4.75650       -4.09100        0.23630
Ge         4.71010       -0.63990       -0.68000
C          6.16220       -0.70590        0.62810
C          4.78440        1.25510       -0.93710
C          5.54030       -1.50310       -2.22190
Si        -1.97630       -1.25430        0.99290
Ge        -2.12230       -3.09970        2.49850
C         -3.14790       -2.57510        4.06790
C         -0.38840       -3.59480        3.13030
C         -2.97240       -4.79920        2.01300
Ge        -4.37080       -1.12720        0.88150
C         -5.23030        0.03140        2.17700
C         -5.35830       -2.78180        1.18410
C         -5.03850       -0.82830       -0.89730
Si        -0.61380        0.36000        2.09470
Ge         0.41840       -0.22010        4.19570
C          1.93660       -1.37440        4.04500
C         -0.59880       -0.95750        5.69160
C          1.21540        1.36120        5.02120
Ge        -1.89580        2.15210        3.16060
C         -3.52790        3.03670        2.52930
C         -2.58650        1.58550        4.89600
C         -0.78130        3.65410        3.70030
Si         1.27340        0.67560        0.58210
Si         0.74110        1.98100       -1.39360
Ge         0.23950        4.19450       -0.61960
C          1.56340        4.99780        0.57910
C         -0.01840        5.65730       -1.89260
C         -1.37510        4.23370        0.36920
Ge         2.34160        2.88740       -2.99440
C          3.70110        2.01670       -4.10680
C          3.48510        4.23140       -2.14260
C          1.35260        3.90690       -4.31670
Si        -1.00530        0.77480       -2.43460
Ge        -3.05040        1.98530       -2.37140
C         -3.81920        2.15310       -0.62140
C         -2.94800        3.79940       -3.06150
C         -4.43920        1.16940       -3.48860
Ge        -1.02920        0.66730       -4.88010
C          0.53100        0.47890       -6.03480
C         -2.30800       -0.62520       -5.59590
C         -1.70690        2.28000       -5.75110
C          2.39950        1.88210        1.46210
S          3.59240        1.08800        2.56820
C          4.35820        2.64910        3.10450
H         -3.61320       -3.12590       -4.71070
H         -5.25790       -2.43590       -4.43390
H         -4.57440       -3.61830       -3.25340
H         -2.61660       -3.18620       -1.75890
H         -1.63870       -2.75280       -3.19740
H          2.03800       -7.02730       -1.33410
H          3.08530       -5.67720       -1.87210
H          2.74510       -5.94130       -0.10930
H         -0.75200       -4.54680        0.62800
H          0.06190       -6.16190        0.80450
H         -1.32950       -5.96570       -0.32930
H          0.68730       -5.72580       -3.64750
H         -0.90100       -4.94560       -3.21360
H         -0.50190       -6.59780       -2.62880
H         -0.29530       -2.23930       -4.96720
H          1.10550       -2.78890       -5.95890
H          0.22650       -3.95220       -4.94580
H          3.92720       -3.69740       -2.93640
H          2.91030       -4.68840       -4.05010
H          3.87880       -3.31120       -4.69690
H          1.54420       -0.00640       -3.73580
H          2.97070       -0.42060       -2.82980
H          3.01770       -0.62020       -4.64240
H          3.08460       -5.42770        2.21950
H          2.22170       -4.23210        3.21810
H          1.60420       -4.65380        1.55990
H          5.70530       -2.88940        2.73620
H          4.67820       -1.42300        2.98300
H          4.28680       -2.96100        3.82200
H          4.85470       -5.13040        0.60780
H          5.76760       -3.65470        0.21540
H          4.35320       -4.09850       -0.78640
H          5.89260       -0.15180        1.54410
H          6.46250       -1.73360        0.87530
H          7.04850       -0.20610        0.18620
H          5.08810        1.76060        0.00050
H          3.77000        1.54850       -1.19560
H          5.51670        1.51250       -1.72740
H          4.92790       -1.42100       -3.13390
H          6.51020       -1.00330       -2.42070
H          5.74580       -2.56620       -1.99900
H         -4.12680       -3.08720        4.09320
H         -3.31900       -1.48520        4.04530
H         -2.60580       -2.87960        4.98390
H          0.33450       -2.97450        2.57310
H         -0.31800       -3.43060        4.21580
H         -0.22270       -4.67390        2.95090
H         -3.12840       -4.88370        0.92850
H         -2.33260       -5.64130        2.34510
H         -3.94650       -4.90900        2.52710
H         -5.99820       -0.54260        2.73430
H         -4.48160        0.39350        2.90060
H         -5.73680        0.86650        1.65400
H         -5.32740       -3.07440        2.24490
H         -4.98220       -3.58810        0.53040
H         -6.42260       -2.60670        0.92460
H         -5.93650       -0.17930       -0.87230
H         -4.21900       -0.37530       -1.44960
H         -5.30090       -1.78990       -1.38150
H          1.73070       -2.36100        4.49730
H          2.12880       -1.44840        2.97360
H          2.81130       -0.93420        4.56220
H         -0.35920       -0.38430        6.61000
H         -0.31800       -2.00850        5.88530
H         -1.67810       -0.88450        5.51780
H          2.13640        1.07670        5.56830
H          0.51760        1.80150        5.75710
H          1.47670        2.11180        4.25890
H         -3.31970        3.98740        2.01220
H         -4.12500        2.38690        1.89350
H         -4.16050        3.30150        3.39920
H         -3.18380        0.66340        4.79660
H         -1.76320        1.45160        5.61680
H         -3.24100        2.37770        5.31140
H          0.13490        3.67440        3.09670
H         -1.33990        4.60230        3.57020
H         -0.52070        3.57700        4.77210
H          1.57500        6.09480        0.41820
H          1.29780        4.82210        1.63360
H          2.57900        4.61560        0.39810
H         -0.35100        6.55290       -1.32890
H         -0.79330        5.42780       -2.63460
H          0.92030        5.91920       -2.40820
H         -2.16210        4.74860       -0.20660
H         -1.63140        3.18470        0.57160
H         -1.20980        4.81250        1.29350
H          3.26100        1.60590       -5.02850
H          4.26340        1.23740       -3.57210
H          4.43340        2.78200       -4.43310
H          4.27640        4.54510       -2.85260
H          2.91230        5.13420       -1.87700
H          3.97390        3.82870       -1.23780
H          1.76250        4.93470       -4.38170
H          0.29520        3.94270       -4.01500
H          1.44100        3.44140       -5.31540
H         -3.22600        1.52250        0.06700
H         -4.87930        1.84420       -0.63140
H         -3.81610        3.21300       -0.31720
H         -2.01380        3.92300       -3.62800
H         -3.80800        3.98890       -3.73520
H         -2.99500        4.53620       -2.24170
H         -5.42110        1.26550       -2.98320
H         -4.51980        1.68120       -4.46450
H         -4.22490        0.09930       -3.66190
H          1.26250        1.26120       -5.79940
H          0.21440        0.61750       -7.08850
H          0.99220       -0.51320       -5.96940
H         -3.26500       -0.11820       -5.83000
H         -2.50100       -1.44960       -4.89620
H         -1.90610       -1.04770       -6.53940
H         -1.03280        3.13640       -5.59220
H         -2.72620        2.52500       -5.42130
H         -1.75820        2.09580       -6.84360
H          1.76890        2.57600        2.03610
H          2.95110        2.45830        0.70540
H          5.15770        2.42440        3.83950
H          4.80630        3.17340        2.23510
H          3.60080        3.30240        3.58540
