72
mol43-D-2
C         -3.03090        4.59620        3.80430
S         -2.20220        2.99760        3.54490
C         -1.91500        3.26900        1.77740
Si        -1.03300        1.83600        0.95540
Si        -2.00280       -0.05580        2.01140
Si        -1.72210       -0.34590        4.28000
Cl        -2.67490        1.12860        5.42410
Cl         0.20930       -0.44330        4.99680
Cl        -2.58900       -2.12520        4.96380
Si        -4.30820        0.28880        2.29080
Cl        -5.18830       -1.06880        3.61460
Cl        -5.72780        0.23900        0.78670
Cl        -4.68530        2.16730        3.13800
Si        -1.20070       -1.95730        0.90150
Si        -3.06920       -3.26030        0.49790
Cl        -3.76350       -3.95130        2.34880
Cl        -4.79400       -2.46310       -0.31590
Cl        -2.72220       -4.97320       -0.66430
Si        -0.11110       -3.69110        2.03960
Cl        -0.98010       -5.59260        1.88520
Cl         1.75440       -4.14090        1.24560
Cl         0.07400       -3.56390        4.11120
Si         1.33190        1.97250        1.25960
Si         2.73140        3.67790        0.56330
Cl         4.59740        3.36340        1.46020
Cl         2.13320        5.60640        1.13660
Cl         3.26280        3.90470       -1.42130
Si         1.69240        2.46180        3.52210
Cl        -0.06540        2.81930        4.56860
Cl         2.87110        1.16430        4.64860
Cl         2.67220        4.26820        3.93610
Si         2.18070        0.03080        0.25910
Si         3.51690       -1.06660        1.78240
Cl         4.59810       -2.65130        0.93950
Cl         5.00950        0.17580        2.56560
Cl         2.60710       -1.84580        3.46110
Si         3.94830        0.14770       -1.28150
Cl         4.01240        1.36080       -2.95620
Cl         4.32480       -1.73010       -2.13030
Cl         5.76520        0.70140       -0.40850
Si         0.34570       -1.11860       -0.71370
Si        -0.66550        0.19260       -2.37630
Si         0.62650        0.98850       -4.09370
Cl        -0.47600        1.33260       -5.84070
Cl         1.46200        2.86260       -3.79170
Cl         2.07240       -0.40390       -4.69740
Si        -1.91380       -1.13370       -3.77810
Cl        -0.66600       -2.19290       -5.08660
Cl        -3.04480       -2.63640       -2.92950
Cl        -3.22590       -0.03710       -4.99090
Si        -1.68990        1.95640       -1.29400
Si        -3.92680        1.97130       -1.79240
Cl        -4.34310        2.93040       -3.60700
Cl        -5.03410        3.07320       -0.39470
Cl        -4.78010        0.11250       -2.13610
Si        -1.38070        4.08860       -2.09440
Cl        -2.88040        5.36400       -1.37700
Cl         0.34420        5.08160       -1.55050
Cl        -1.47750        4.20100       -4.18580
C          1.17680       -2.50790       -1.65500
S          0.06390       -3.89820       -1.98490
C          1.31770       -4.88290       -2.86130
H         -3.32290        4.68250        4.87080
H         -2.34150        5.42870        3.55170
H         -3.94320        4.65920        3.17510
H         -1.29330        4.17220        1.65180
H         -2.88060        3.43300        1.26930
H          1.53690       -2.10360       -2.61660
H          2.04580       -2.86270       -1.07500
H          1.67780       -4.33300       -3.75580
H          0.86210       -5.84000       -3.18720
H          2.17090       -5.10200       -2.18580
