180
mol4-B-1
C          4.25060        2.00220       -2.91520
S          3.54960        0.47190       -2.21580
C          1.97800        1.21670       -1.64630
C          0.75610        0.48880       -0.89110
C          0.75590       -1.19580       -1.41750
C          2.10590       -2.10400       -1.05710
C          2.93340       -3.12760       -0.11550
C          4.42090       -3.14040       -0.56420
C          2.51650       -4.63180       -0.11410
C          0.92250       -1.20720       -3.04920
C          2.01820       -1.84200       -4.03100
C          2.07210       -3.38160       -4.16310
C          3.43730       -1.24820       -3.97440
C         -0.70040       -1.92280       -0.95640
C         -1.74920       -2.30220       -2.15090
C         -1.69970       -3.45620       -3.26560
C         -2.99460       -4.31360       -3.26280
C         -1.58340       -2.92770       -4.72990
C         -0.38600       -3.44200       -0.47500
C         -1.39190       -4.61720       -0.10490
C         -0.95600       -5.95470       -0.74860
C         -1.50150       -4.88990        1.41370
C          0.90430        0.57620        0.81070
C          2.34040        0.07260        1.36380
C          3.73550        0.81340        1.46820
C          4.76820        0.39850        0.40020
C          4.43310        0.56700        2.83470
C          0.85590        2.10770        1.39470
C          1.50870        2.69750        2.72500
C          2.38010        3.94960        2.43140
C          0.48800        3.17300        3.79700
C         -0.34780       -0.39950        1.43760
C          0.23360       -1.78350        2.04790
C          0.82350       -2.08020        3.50530
C          2.23020       -2.71800        3.47100
C         -0.05940       -3.04630        4.35660
C         -0.94210        0.30610        2.79750
C         -1.87220       -0.30790        3.92430
C         -3.31820        0.22340        3.88090
C         -1.35890        0.03730        5.34580
C         -1.44810       -0.81310        0.14610
C         -2.01590        0.59330       -0.68230
C         -3.27420        0.27570       -1.71940
C         -4.61890        1.05170       -1.95740
C         -4.48900        2.23660       -2.93980
C         -5.68610        0.09940       -2.54550
C         -2.68030        1.50320        0.47580
C         -3.63630        2.77210        0.47110
C         -4.94080        2.49090        1.26320
C         -3.01160        4.03360        1.12080
C         -0.66440        1.31450       -1.45380
C         -0.75620        2.92430       -1.17930
C          0.06730        4.11550       -1.81710
C          0.62650        5.11130       -0.76900
C         -0.81990        4.97580       -2.75100
C         -0.90660        1.30320       -3.09140
C         -0.28920        2.07990       -4.35860
C          0.76620        1.33420       -5.19940
C         -1.41980        2.42780       -5.37020
C         -2.67220       -1.60940        0.83940
S         -4.47850       -1.22330        0.73190
C         -5.02810       -2.60590        1.78550
H          5.25490        1.78030       -3.32970
H          4.35300        2.77460       -2.12500
H          3.60320        2.38160       -3.73250
H          2.36430        1.98720       -0.98370
H          1.63030        1.77660       -2.50650
H          2.08630       -2.84320       -1.83470
H          2.88380       -1.38850       -1.29190
H          2.96960       -2.82790        0.93020
H          4.52730       -3.66200       -1.54020
H          4.84090       -2.13100       -0.69430
H          5.05260       -3.66060        0.18850
H          3.38080       -5.29690        0.10360
H          1.81850       -4.87480        0.70970
H          2.11960       -4.96120       -1.09570
H          1.00750       -0.19940       -3.33340
H          0.01750       -1.47060       -3.52490
H          1.66770       -1.52600       -5.04030
H          1.16760       -3.85750       -3.75800
H          2.16750       -3.67580       -5.23080
H          2.95080       -3.80890       -3.63370
H          4.00220       -1.56590       -4.87740
H          3.41530       -0.14280       -3.99200
H          4.01580       -1.60590       -3.10400
H         -1.87140       -1.44080       -2.73460
H         -2.70560       -2.49990       -1.65290
H         -0.86220       -4.14080       -3.11280
H         -2.93930       -5.10980       -4.03650
H         -3.87950       -3.67500       -3.47550
H         -3.17790       -4.84650       -2.32140
H         -0.53570       -2.79350       -5.05120
H         -2.14720       -1.98130       -4.87280
H         -1.98250       -3.65500       -5.46950
H          0.34760       -3.49380        0.27440
H          0.19400       -3.84490       -1.31600
H         -2.40790       -4.41950       -0.46010
H         -0.87730       -5.88960       -1.84740
H         -1.70170       -6.74990       -0.53270
H          0.02790       -6.27930       -0.34930
H         -0.49600       -4.98260        1.87680
H         -2.08530       -4.11720        1.94200
H         -2.04950       -5.83800        1.60320
H          2.12040       -0.15220        2.41030
H          2.60300       -0.83140        0.89260
H          3.60430        1.88340        1.38420
H          4.31990        0.21590       -0.58290
H          5.52840        1.20080        0.28290
H          5.30890       -0.52130        0.70100
H          5.34000        1.20430        2.91640
H          4.74610       -0.49390        2.93280
H          3.79710        0.78940        3.71030
H          1.17800        2.74610        0.59980
H         -0.12410        2.45030        1.53910
H          2.11370        1.94630        3.23220
H          1.73650        4.84180        2.26960
H          3.01220        3.87060        1.53130
H          3.04940        4.15470        3.29430
H         -0.31990        3.78690        3.34530
H          0.99110        3.79870        4.56650
H          0.04700        2.34620        4.37020
H          1.02740       -2.05290        1.39040
H         -0.53430       -2.53330        1.92250
H          0.97820       -1.15410        4.07180
H          2.98610       -2.05820        3.01680
H          2.58460       -2.91550        4.50640
H          2.20560       -3.68550        2.92620
H         -0.25730       -2.60480        5.35480
H          0.42810       -4.02930        4.53800
H         -1.02610       -3.30680        3.88990
H         -1.31960        1.31690        2.73150
H         -0.00550        0.52310        3.31850
H         -1.93050       -1.39400        3.86530
H         -3.33530        1.33370        3.86540
H         -3.87400       -0.16000        3.02430
H         -3.88660       -0.11650        4.77380
H         -1.91560       -0.55470        6.10420
H         -1.51420        1.11390        5.57150
H         -0.28680       -0.17860        5.49210
H         -3.01820        0.12240       -2.75940
H         -3.61480       -0.71210       -1.49260
H         -5.07600        1.37270       -1.02770
H         -3.70350        2.95640       -2.65590
H         -4.25620        1.87000       -3.96260
H         -5.44710        2.79720       -2.98280
H         -5.91240       -0.72530       -1.83720
H         -6.63660        0.64490       -2.73200
H         -5.33650       -0.34390       -3.50320
H         -3.07260        0.85590        1.25210
H         -1.85470        1.87320        0.94480
H         -3.89760        3.09300       -0.53880
H         -5.35610        1.48220        1.07960
H         -4.75920        2.55770        2.35690
H         -5.71720        3.23820        0.99300
H         -3.79780        4.77940        1.37000
H         -2.33360        4.56120        0.42730
H         -2.47530        3.78000        2.05970
H         -1.80290        3.16600       -1.42180
H         -0.78010        3.17920       -0.15590
H          0.94660        3.75610       -2.36340
H          1.03030        6.01700       -1.27220
H          1.46940        4.70070       -0.19820
H         -0.16160        5.43770       -0.05870
H         -1.48550        5.64400       -2.16140
H         -1.48730        4.36540       -3.37550
H         -0.18590        5.60040       -3.41610
H         -1.09090        0.30940       -3.47110
H         -1.88820        1.77290       -3.11770
H          0.18180        3.02460       -4.10780
H          1.74970        1.29100       -4.70080
H          0.39840        0.32720       -5.48340
H          0.97410        1.88160       -6.14450
H         -1.02710        3.04270       -6.20890
H         -2.24140        3.01120       -4.91190
H         -1.86350        1.49710       -5.78610
H         -2.50110       -1.73320        1.89910
H         -2.66970       -2.61310        0.48790
H         -6.13030       -2.55730        1.89770
H         -4.75830       -3.57460        1.31560
H         -4.56200       -2.53340        2.79000
