72
mol45-A-1
C          1.68570       -4.62580       -3.52140
S          0.83550       -3.05830       -3.16180
C          1.54050       -2.88990       -1.50230
Si         0.95450       -1.34200       -0.63120
Si         2.63230       -0.85850        0.92310
Ge         4.83780       -0.63570        0.12630
Cl         5.50640        1.35520       -0.33220
Cl         5.27500       -2.04930       -1.45690
Cl         6.27530       -1.17940        1.65080
Ge         3.13080       -2.76380        2.22500
Cl         4.34150       -4.11190        1.03780
Cl         1.55240       -4.04760        2.89150
Cl         4.32310       -2.28590        3.97120
Si         1.99670        1.06340        2.01690
Ge         1.83110        0.65220        4.33040
Cl         0.61350        2.13790        5.33330
Cl         1.34670       -1.35580        4.92580
Cl         3.75140        0.88550        5.30220
Ge         3.60220        2.77420        2.27930
Cl         3.94550        4.17210        0.69440
Cl         5.54380        2.00670        2.86300
Cl         2.97130        4.06890        3.89750
Si         0.94140        0.27560       -2.35760
Ge        -0.50250       -0.02790       -4.20900
Cl         0.08580       -1.72440       -5.42080
Cl        -0.35880        1.62180       -5.60430
Cl        -2.60860       -0.22690       -3.88530
Ge         2.90510        0.00620       -3.71690
Cl         3.12190       -2.07330       -4.28330
Cl         2.72380        1.03890       -5.60660
Cl         4.93490        0.53570       -3.25780
Si         0.49120        2.34490       -1.38270
Ge        -1.35530        3.67620       -2.13310
Cl        -2.67520        4.27900       -0.54470
Cl        -2.53640        3.04150       -3.82420
Cl        -0.79650        5.64990       -2.82730
Ge         2.12040        3.84580       -2.24630
Cl         2.05540        5.84840       -1.41350
Cl         1.65080        4.08720       -4.34580
Cl         4.21370        3.39810       -2.36220
Si         0.10220        1.87700        0.91530
Si        -1.73720        0.43060        1.26440
Ge        -3.87020        1.06480        0.45650
Cl        -4.13020        1.48230       -1.62630
Cl        -4.65810        2.77970        1.51990
Cl        -5.35400       -0.46110        0.85540
Ge        -2.44810        0.58420        3.55510
Cl        -1.50320       -0.22020        5.30760
Cl        -4.42110       -0.24930        3.84320
Cl        -2.68040        2.66520        4.11010
Si        -1.18010       -1.64850        0.36890
Ge        -1.72250       -3.24990        2.04060
Cl        -3.88250       -3.24830        2.18510
Cl        -1.19170       -3.04480        4.10740
Cl        -1.18470       -5.29620        1.55930
Ge        -2.57120       -2.68050       -1.28780
Cl        -4.43860       -1.76430       -1.86310
Cl        -3.30900       -4.63780       -0.72660
Cl        -1.50070       -3.26050       -3.06160
C         -0.37950        3.41520        1.86390
S          0.52930        4.88100        1.31170
C         -0.27940        6.00530        2.49120
H          1.38040       -5.40220       -2.78920
H          1.40550       -4.96290       -4.54020
H          2.78540       -4.48120       -3.47980
H          2.64270       -2.87220       -1.56530
H          1.23380       -3.75940       -0.89540
H         -1.46460        3.58400        1.74920
H         -0.15850        3.24070        2.93120
H         -0.07510        5.67770        3.53200
H          0.12540        7.02820        2.35050
H         -1.37450        6.02360        2.31080
