72
mol42-B-0
C         -4.75350       -0.92230       -3.90280
S         -3.78700       -1.13910       -2.37660
C         -2.39290       -0.12140       -2.94240
Si        -1.04510       -0.02450       -1.64450
Si         0.67520        1.07600       -2.65770
Si         1.44780       -0.00170       -4.46210
F          0.16960       -0.31000       -5.51680
F          2.55560        0.99400       -5.25220
F          2.21640       -1.43980       -4.07580
Si        -0.04510        2.90680       -3.74910
F          1.21540        3.49360       -4.70230
F         -1.32020        2.47230       -4.76240
F         -0.55200        4.15140       -2.74710
Si         2.32380        1.51720       -1.16300
Si         2.61700        3.74570       -1.10140
F          3.73160        4.17400        0.08580
F          3.23680        4.22490       -2.59430
F          1.19090        4.58990       -0.86130
Si         4.40040        0.94120       -1.83080
F          5.32500        2.33080       -2.06990
F          5.16680        0.03130       -0.64150
F          4.39970        0.08490       -3.27820
Si        -0.30300       -2.09030       -0.99560
Si         0.04770       -3.39650       -2.80140
F          1.66840       -3.79650       -3.00500
F         -0.80820       -4.83940       -2.63240
F         -0.52180       -2.63940       -4.19150
Si        -1.73090       -3.43890        0.09910
F         -1.00990       -4.95780        0.22570
F         -2.06650       -2.91690        1.65430
F         -3.16920       -3.61610       -0.75810
Si         1.50980       -1.77640        0.33170
Si         3.34890       -2.72390       -0.52530
F          3.70920       -2.16120       -2.06210
F          4.65400       -2.43660        0.50180
F          3.10540       -4.38980       -0.61600
Si         1.45140       -3.00340        2.21670
F          0.06940       -2.78340        3.13950
F          2.79800       -2.62450        3.15700
F          1.53700       -4.63410        1.79800
Si         1.79100        0.44000        0.78510
Si        -0.12210        1.28530        1.69060
Si         0.15620        3.33920        2.56180
F         -1.34820        4.08120        2.72840
F          1.16810        4.32250        1.65820
F          0.84330        3.17950        4.09380
Si        -0.73420        0.24780        3.58110
F         -1.84310       -0.97800        3.29200
F         -1.48070        1.36400        4.60120
F          0.62500       -0.36290        4.36820
Si        -1.77710        1.18140        0.14560
Si        -2.47890        3.23760       -0.40610
F         -1.26690        4.38350       -0.22220
F         -3.05730        3.24300       -1.98890
F         -3.74130        3.67930        0.62110
Si        -3.72400        0.42130        0.97460
F         -3.84920       -1.24960        0.97470
F         -4.97940        1.02170        0.02180
F         -3.92390        1.00080        2.54490
C          3.17660        0.50740        2.04440
S          3.67570        2.21940        2.39080
C          4.96080        1.75550        3.59210
H         -4.18860       -1.31970       -4.77170
H         -4.98010        0.15270       -4.06110
H         -5.70740       -1.48030       -3.80870
H         -2.74910        0.90610       -3.15400
H         -1.96810       -0.55250       -3.86990
H          2.82270        0.03070        2.97970
H          4.04310       -0.06260        1.65600
H          5.44730        2.67590        3.97460
H          5.72820        1.11980        3.10330
H          4.50650        1.20850        4.44440
