180
mol4-B-0
C          4.07680        2.68470       -2.54530
S          3.00830        2.58590       -1.07190
C          1.98680        1.18690       -1.66190
C          0.76260        0.46770       -0.90220
C          0.75780       -1.22050       -1.41700
C          2.10510       -2.13000       -1.04980
C          2.92930       -3.14950       -0.10100
C          4.41690       -3.16960       -0.54900
C          2.50810       -4.65240       -0.08930
C          0.92490       -1.24360       -3.04850
C          2.01910       -1.88830       -4.02550
C          2.06870       -3.42890       -4.14700
C          3.43990       -1.29810       -3.97250
C         -0.70080       -1.94020       -0.95140
C         -1.75030       -2.32470       -2.14370
C         -1.70370       -3.48650       -3.25040
C         -3.00090       -4.34020       -3.24230
C         -1.58530       -2.96840       -4.71830
C         -0.39090       -3.45690       -0.45950
C         -1.40020       -4.62660       -0.08170
C         -0.96790       -5.96980       -0.71600
C         -1.51120       -4.88860        1.43870
C          0.91040        0.56640        0.79900
C          2.34490        0.06240        1.35610
C          3.74210        0.80000        1.45600
C          4.77400        0.37480        0.39120
C          4.43850        0.56100        2.82440
C          0.86620        2.10200        1.37250
C          1.52020        2.69910        2.69890
C          2.39530        3.94660        2.39700
C          0.50050        3.18490        3.76720
C         -0.34470       -0.40140        1.43220
C          0.23260       -1.78280        2.05220
C          0.82110       -2.07120        3.51180
C          2.22600       -2.71330        3.48250
C         -0.06480       -3.02890        4.36940
C         -0.93750        0.31520        2.78700
C         -1.86970       -0.28840        3.91760
C         -3.31420        0.24680        3.87010
C         -1.35590        0.06510        5.33690
C         -1.44570       -0.82080        0.14310
C         -2.00920        0.58160       -0.69520
C         -3.26800        0.26050       -1.73050
C         -4.61040        1.03860       -1.97430
C         -4.47680        2.21640       -2.96480
C         -5.68010        0.08540       -2.55630
C         -2.67140        1.50120        0.45640
C         -3.62380        2.77280        0.44270
C         -4.92930        2.50080        1.23620
C         -2.99570        4.03700        1.08390
C         -0.65530        1.29360       -1.47110
C         -0.74260        2.90540       -1.20770
C          0.08450        4.08990       -1.85330
C          0.64620        5.09130       -0.81190
C         -0.79990        4.94630       -2.79340
C         -0.89700        1.27170       -3.10870
C         -0.27690        2.03790       -4.38090
C          0.77660        1.28340       -5.21620
C         -1.40610        2.38200       -5.39530
C         -2.67230       -1.60880        0.84140
S         -4.47750       -1.21830        0.73060
C         -5.03130       -2.59210        1.79340
H          4.80380        3.51040       -2.40680
H          3.46750        2.89300       -3.44910
H          4.63600        1.73550       -2.67730
H          1.59910        1.61290       -2.58410
H          2.71490        0.46230       -2.00700
H          2.08360       -2.87450       -1.82240
H          2.88500       -1.41840       -1.28930
H          2.96600       -2.84270        0.94270
H          4.52220       -3.69820       -1.52130
H          4.83990       -2.16230       -0.68590
H          5.04680       -3.68650        0.20750
H          3.37040       -5.31850        0.13320
H          1.80910       -4.88770        0.73580
H          2.11060       -4.98740       -1.06880
H          1.01290       -0.23800       -3.33960
H          0.01940       -1.50770       -3.52270
H          1.66990       -1.57820       -5.03710
H          1.16270       -3.89930       -3.73900
H          2.16370       -3.73060       -5.21260
H          2.94600       -3.85500       -3.61440
H          4.00420       -1.62360       -4.87310
H          3.42110       -0.19280       -3.99770
H          4.01710       -1.65140       -3.09940
H         -1.86970       -1.46700       -2.73340
H         -2.70730       -2.51630       -1.64470
H         -0.86810       -4.17250       -3.09260
H         -2.94770       -5.14180       -4.01040
H         -3.88390       -3.70050       -3.45960
H         -3.18610       -4.86610       -2.29720
H         -0.53710       -2.83950       -5.04010
H         -2.14640       -2.02140       -4.86790
H         -1.98620       -3.69960       -5.45310
H          0.34230       -3.50560        0.29050
H          0.18830       -3.86720       -1.29750
H         -2.41560       -4.42850       -0.43860
H         -0.88870       -5.91250       -1.81530
H         -1.71600       -6.76130       -0.49500
H          0.01490       -6.29440       -0.31410
H         -0.50610       -4.98090        1.90280
H         -2.09300       -4.11060        1.96150
H         -2.06190       -5.83380        1.63450
H          2.12380       -0.15450        2.40410
H          2.60510       -0.84550        0.89120
H          3.61400        1.86980        1.36450
H          4.32540        0.18680       -0.59080
H          5.53650        1.17410        0.26870
H          5.31190       -0.54440        0.69860
H          5.34720        1.19630        2.90200
H          4.74840       -0.50010        2.92990
H          3.80280        0.79130        3.69820
H          1.19040        2.73400        0.57330
H         -0.11290        2.44830        1.51420
H          2.12290        1.94970        3.21150
H          1.75430        4.83950        2.22890
H          3.02750        3.85970        1.49770
H          3.06490        4.15570        3.25880
H         -0.30550        3.79790        3.31100
H          1.00520        3.81430        4.53260
H          0.05700        2.36320        4.34590
H          1.02580       -2.05900        1.39690
H         -0.53740       -2.53130        1.93160
H          0.97820       -1.14160        4.07200
H          2.98390       -2.05870        3.02400
H          2.57950       -2.90460        4.51930
H          2.19880       -3.68430        2.94430
H         -0.26190       -2.58000        5.36440
H          0.41980       -4.01200        4.55780
H         -1.03210       -3.28990        3.90410
H         -1.31200        1.32660        2.71380
H         -0.00040        0.53310        3.30680
H         -1.93100       -1.37470        3.86600
H         -3.32810        1.35690        3.84690
H         -3.87070       -0.14090        3.01590
H         -3.88390       -0.08540        4.76500
H         -1.91460       -0.52010        6.09910
H         -1.50820        1.14370        5.55510
H         -0.28450       -0.15280        5.48510
H         -3.01210        0.09930       -2.76930
H         -3.61150       -0.72480       -1.49700
H         -5.06690        1.36730       -1.04700
H         -3.68930        2.93580       -2.68560
H         -4.24470        1.84200       -3.98500
H         -5.43330        2.77930       -3.01210
H         -5.90910       -0.73390       -1.84240
H         -6.62890        0.63220       -2.74690
H         -5.33150       -0.36550       -3.51070
H         -3.06580        0.86040        1.23700
H         -1.84490        1.87220        0.92320
H         -3.88380        3.08750       -0.56960
H         -5.34740        1.49200        1.05940
H         -4.74790        2.57460        2.32950
H         -5.70340        3.24850        0.96050
H         -3.77980        4.78670        1.32760
H         -2.31600        4.55780        0.38700
H         -2.46050        3.78830        2.02470
H         -1.78850        3.14850       -1.45220
H         -0.76620        3.16750       -0.18600
H          0.96300        3.72430       -2.39680
H          1.05270        5.99230       -1.32120
H          1.48770        4.68220       -0.23800
H         -0.14130        5.42480       -0.10410
H         -1.46390        5.62040       -2.20870
H         -1.46880        4.33350       -3.41400
H         -0.16390        5.56450       -3.46260
H         -1.08400        0.27590       -3.48160
H         -1.87730        1.74400       -3.13860
H          0.19670        2.98290       -4.13640
H          1.75990        1.24090       -4.71690
H          0.40600        0.27560       -5.49340
H          0.98640        1.82370       -6.16500
H         -1.01140        2.99000       -6.23810
H         -2.22630        2.97090       -4.94130
H         -1.85240        1.44980       -5.80500
H         -2.50190       -1.72580        1.90200
H         -2.67260       -2.61490        0.49680
H         -6.13340       -2.53950        1.90490
H         -4.76410       -3.56470        1.33030
H         -4.56540       -2.51390        2.79760
