36
mol48-E-1
C          4.39380       -1.81910        1.43050
S          3.13750       -1.59280        0.13340
C          3.94180       -2.66710       -1.10380
Si         2.97230       -2.76730       -2.71610
Si         2.27620       -4.88100       -3.00540
Br         0.79580       -5.39760       -1.38550
Br         4.00480       -6.31920       -2.84820
Si         1.30990       -5.10230       -5.01490
Br        -0.48420       -6.45710       -4.83310
Br         2.75730       -6.04220       -6.46530
Si         4.06290       -2.12810       -4.58100
Br         5.08130       -0.13220       -4.30730
Br         5.62060       -3.66150       -5.13420
Si         2.58790       -1.94310       -6.25730
Br         3.47960       -2.75220       -8.16390
Br         2.07260        0.22570       -6.59490
Si         0.72350       -3.07200       -5.75600
Si        -0.33280       -1.98750       -4.10650
Br        -1.30300       -0.11930       -4.91400
Br        -1.94070       -3.30200       -3.22690
Si         1.15620       -1.46510       -2.51620
Br         0.22350       -1.75500       -0.48320
Br         1.75900        0.69850       -2.70810
C         -0.31930       -3.16520       -7.30600
S         -1.95530       -3.87370       -6.93730
C         -2.55090       -3.76020       -8.65290
H          5.39010       -1.51810        1.05360
H          4.41970       -2.88000        1.75460
H          4.13350       -1.18340        2.30110
H          4.98120       -2.34060       -1.31440
H          3.99900       -3.68770       -0.67490
H          0.20910       -3.79560       -8.05090
H         -0.43930       -2.13830       -7.70970
H         -2.55100       -2.70190       -8.98750
H         -3.58710       -4.15260       -8.70280
H         -1.90480       -4.36590       -9.32190
