72
mol45-E-1
C          3.30120       -2.89210        4.00670
S          3.05130       -1.71520        2.64210
C          1.24420       -1.74550        2.75520
Si         0.43100       -0.63330        1.49040
Si         1.79940       -0.77600       -0.39950
Ge         2.19210       -3.03280       -0.97060
Cl         3.65990       -3.84490        0.40000
Cl         0.60620       -4.46410       -0.82920
Cl         3.05130       -3.25000       -2.94900
Ge         4.08810       -0.28300       -0.13940
Cl         4.70150        1.73110       -0.57340
Cl         5.28670       -1.36580       -1.58070
Cl         4.86310       -1.00330        1.75170
Si         0.87850        0.60010       -1.99720
Ge         0.36140       -0.64670       -3.92780
Cl        -1.09140        0.36210       -5.17990
Cl         2.07900       -0.80460       -5.23610
Cl        -0.09190       -2.72880       -3.64470
Ge         2.31310        2.07940       -3.14920
Cl         2.82620        3.96710       -2.27910
Cl         4.17560        1.13870       -3.73690
Cl         1.34880        2.67720       -4.99440
Si        -1.81610       -1.28040        1.06320
Ge        -2.52730       -3.38820        0.22400
Cl        -1.79530       -5.10830        1.32560
Cl        -2.35540       -3.97470       -1.83090
Cl        -4.67780       -3.42900        0.46820
Ge        -2.85210       -1.60950        3.19940
Cl        -3.55240       -3.63030        3.53920
Cl        -4.65210       -0.53430        3.71160
Cl        -1.47260       -1.48880        4.84580
Si        -2.63670        0.31520       -0.42530
Ge        -3.72110       -0.39620       -2.44870
Cl        -4.16630        1.32690       -3.68380
Cl        -5.66060       -1.26620       -2.05950
Cl        -3.02910       -1.80330       -3.91580
Ge        -4.64290        1.21740        0.44990
Cl        -5.69630        2.41360       -1.01700
Cl        -6.07720       -0.33880        0.90850
Cl        -4.58290        2.38580        2.24180
Si        -0.85570        1.77720       -0.96190
Si        -0.12460        3.06930        0.89460
Ge        -1.90020        4.59460        1.40950
Cl        -3.49630        4.56620       -0.03270
Cl        -1.35540        6.68170        1.21640
Cl        -2.74790        4.64580        3.39360
Ge         1.53050        4.77560        0.84390
Cl         1.39750        5.78800        2.75270
Cl         3.63770        4.39250        0.74980
Cl         1.20920        6.32090       -0.64490
Si         0.60330        1.51320        2.47060
Ge        -0.49690        1.93260        4.52430
Cl        -0.22660        3.98400        5.16320
Cl         0.38330        0.81010        6.15460
Cl        -2.61170        1.63840        4.66970
Ge         2.77570        1.76170        3.46820
Cl         2.84430        3.42760        4.84290
Cl         3.20760        0.04420        4.71570
Cl         4.66720        2.06970        2.49940
C         -1.57820        2.85100       -2.31230
S         -0.68130        4.41180       -2.50850
C         -1.73870        5.01700       -3.85950
H          2.82160       -3.86360        3.76490
H          4.38910       -3.05370        4.14920
H          2.87210       -2.48420        4.94560
H          0.94450       -1.39670        3.75870
H          0.87890       -2.77790        2.61470
H         -1.52490        2.28820       -3.26040
H         -2.63800        3.05630       -2.08070
H         -1.68790        4.32250       -4.72390
H         -2.78850        5.10740       -3.51070
H         -1.37880        6.01610       -4.17970
