180
mol41-D-0
C          1.09080       -3.25300        5.11420
S          1.44850       -2.06630        3.78250
C         -0.12890       -2.32760        2.92870
Si        -0.30860       -1.28770        1.38450
Si         0.70360       -2.73240       -0.29010
Ge         0.12260       -5.00600       -0.77380
C          1.48870       -5.94960       -1.79180
C         -1.48230       -5.10650       -1.82630
C         -0.10800       -6.23440        0.72990
Ge         2.83780       -3.47660        0.49290
C          2.70950       -4.91980        1.79460
C          3.82770       -2.19200        1.49420
C          4.07700       -4.17140       -0.83940
Si         0.51350       -1.53760       -2.29950
Ge         2.67130       -1.20610       -3.27320
C          4.21540       -1.15890       -2.10630
C          3.17660       -2.70480       -4.41250
C          2.75860        0.29890       -4.49700
Ge        -0.34320       -2.58260       -4.28440
C         -2.24260       -2.76140       -4.26340
C         -0.02600       -1.48590       -5.87000
C          0.27110       -4.33680       -4.86920
Si         0.79760        0.86430        1.57390
Ge         3.14180        1.29070        2.07910
C          4.77370        0.78240        1.13100
C          3.58850        0.59140        3.84580
C          3.45840        3.20200        2.22820
Ge         0.07920        1.85180        3.63360
C          1.14310        3.22860        4.52760
C         -0.12830        0.61030        5.11600
C         -1.58570        2.73870        3.39890
Si         0.11040        1.96080       -0.40640
Ge         1.85960        3.06590       -1.59100
C          2.48970        4.72750       -0.79220
C          1.53270        3.66710       -3.42340
C          3.42040        1.98210       -1.60330
Ge        -1.01220        4.03920       -0.02810
C         -1.10510        5.12340       -1.65380
C         -0.14900        5.22410        1.24690
C         -2.83050        3.93920        0.58160
Si        -0.95200        0.29010       -1.78380
Si        -3.16210       -0.33190       -0.95830
Ge        -4.62770        1.49980       -1.49570
C         -3.76670        3.03180       -2.29350
C         -5.88790        1.26550       -2.96690
C         -5.81960        2.02540       -0.05910
Ge        -4.76680       -1.90880       -1.85720
C         -5.21580       -1.79220       -3.75950
C         -6.50500       -1.64680       -1.00470
C         -4.45110       -3.80150       -1.63600
Si        -2.73130       -1.00290        1.28870
Ge        -3.62750       -3.10670        2.05080
C         -3.56610       -3.44580        3.97940
C         -2.57770       -4.56510        1.45380
C         -5.46870       -3.59280        1.64500
Ge        -4.07070        0.15590        2.97090
C         -3.41840       -0.18020        4.77280
C         -4.68250        2.01310        3.06030
C         -5.86460       -0.61540        3.08310
C         -1.08000        1.18510       -3.42100
S         -2.44180        0.59570       -4.46000
C         -2.09860        1.74910       -5.82590
H          0.20190       -2.92160        5.69050
H          0.90770       -4.26200        4.68970
H          1.96340       -3.30260        5.79690
H         -0.22210       -3.39430        2.65050
H         -0.95800       -2.07090        3.59990
H          2.03670       -5.25060       -2.44290
H          1.00940       -6.73620       -2.40930
H          2.19910       -6.44280       -1.10150
H         -1.29280       -5.60530       -2.79510
H         -1.80270       -4.06540       -1.97970
H         -2.25420       -5.68500       -1.28310
H         -1.10480       -6.71490        0.67530
H          0.64470       -7.04580        0.67750
H          0.00430       -5.70120        1.69020
H          2.55060       -5.88340        1.27860
H          3.66530       -4.99310        2.35220
H          1.89570       -4.71570        2.51440
H          3.16760       -1.32530        1.55400
H          4.78150       -1.97340        0.97800
H          4.05200       -2.57410        2.50980
H          5.08490       -3.74160       -0.67130
H          4.15910       -5.27170       -0.74590
H          3.73270       -3.90950       -1.85150
H          3.84860       -1.28900       -1.08250
H          4.91780       -1.97590       -2.35740
H          4.78080       -0.21680       -2.22860
H          2.83090       -3.65460       -3.96850
H          2.75530       -2.57660       -5.42430
H          4.27990       -2.73870       -4.51650
H          2.37440        0.00820       -5.49260
H          2.15800        1.12780       -4.09910
H          3.81400        0.61850       -4.61300
H         -2.68070       -2.29860       -5.16920
H         -2.52690       -3.83060       -4.23810
H         -2.56170       -2.23260       -3.36150
H          0.88600       -1.82000       -6.39780
H          0.08330       -0.42560       -5.59920
H         -0.87840       -1.58860       -6.57120
H          0.53050       -4.96320       -4.01260
H          1.14050       -4.24750       -5.54680
H         -0.54360       -4.83400       -5.43360
H          4.55910        0.24840        0.20710
H          5.39890        0.14250        1.78510
H          5.38070        1.67890        0.89630
H          4.44790        1.16020        4.25530
H          3.88120       -0.47280        3.77600
H          2.74170        0.68590        4.53690
H          4.03650        3.55930        1.35430
H          4.04590        3.41610        3.14360
H          2.50150        3.73470        2.27260
H          2.19190        2.91140        4.66060
H          0.71310        3.39670        5.53600
H          1.09630        4.19230        3.99080
H         -0.71860        1.09750        5.91790
H          0.84710        0.32280        5.54610
H         -0.64540       -0.28930        4.77950
H         -2.17910        2.66030        4.32620
H         -2.06590        2.24830        2.54010
H         -1.40260        3.80900        3.20840
H          3.57200        4.84890       -1.00090
H          2.33290        4.72130        0.29220
H          1.95800        5.59270       -1.23000
H          2.49630        3.68170       -3.97210
H          1.13220        4.69910       -3.41750
H          0.82970        3.02110       -3.96530
H          3.08030        0.99510       -1.25700
H          4.16870        2.41860       -0.91940
H          3.85810        1.95200       -2.61730
H         -0.25980        5.83500       -1.68910
H         -1.08110        4.48530       -2.55550
H         -2.04560        5.71050       -1.65440
H          0.50580        4.62940        1.89640
H          0.43870        5.99960        0.71870
H         -0.91400        5.73970        1.86150
H         -2.91480        4.32250        1.61380
H         -3.12090        2.87990        0.50300
H         -3.48120        4.58190       -0.03850
H         -4.32030        3.95680       -2.03870
H         -2.74370        3.05520       -1.92820
H         -3.74630        2.93670       -3.39590
H         -6.38820        2.23770       -3.15440
H         -5.35720        0.98200       -3.89370
H         -6.67700        0.54390       -2.71730
H         -6.85000        2.13180       -0.45490
H         -5.51120        2.99900        0.36570
H         -5.82120        1.23560        0.70790
H         -4.55160       -1.09140       -4.28460
H         -5.11740       -2.79260       -4.22700
H         -6.26580       -1.46690       -3.89280
H         -6.89650       -2.61630       -0.64340
H         -6.41270       -0.92670       -0.17300
H         -7.25580       -1.28070       -1.72690
H         -3.77980       -3.94460       -0.78500
H         -4.02050       -4.23120       -2.55660
H         -5.41170       -4.32390       -1.45990
H         -3.91660       -4.48260        4.15950
H         -4.23840       -2.77180        4.53670
H         -2.53690       -3.37450        4.37310
H         -3.21090       -5.34290        0.98200
H         -1.88330       -4.11570        0.74100
H         -2.04510       -5.00090        2.32050
H         -5.92720       -4.05750        2.54150
H         -5.51160       -4.33600        0.83040
H         -6.05220       -2.70280        1.38690
H         -4.27370       -0.43650        5.43050
H         -2.94080        0.72410        5.18460
H         -2.70600       -1.01850        4.77580
H         -4.24380        2.63160        2.28820
H         -5.78260        2.06740        2.93710
H         -4.45020        2.43960        4.05550
H         -6.46620       -0.03270        3.81000
H         -6.36900       -0.56370        2.10250
H         -5.84210       -1.64960        3.45980
H         -1.19500        2.26450       -3.24200
H         -0.12960        1.02430       -3.95080
H         -1.07410        1.58670       -6.21930
H         -2.82890        1.56970       -6.64080
H         -2.20040        2.79750       -5.47690
