36
mol47-B-0
C          6.43570        2.12410        0.15500
S          5.79510        0.41910        0.14090
C          4.18450        0.81390        0.90510
Si         3.14860       -0.73260        1.08900
Si         2.80240       -1.72500       -0.88440
Cl         2.30270       -0.28660       -2.31960
Cl         4.54730       -2.71800       -1.47700
Si         1.13660       -3.20650       -0.67850
Cl        -0.64530       -2.37000       -1.38870
Cl         1.59220       -4.91090       -1.80470
Si         1.16570       -0.12740        1.91790
Cl         1.44660        1.12140        3.57360
Cl         0.09300        0.90660        0.44820
Si         0.03580       -1.95350        2.53450
Cl         0.20580       -2.22690        4.60230
Cl        -1.98420       -1.74210        2.02950
Si         0.89210       -3.72710        1.48540
Si         2.90800       -4.13820        2.36120
Cl         2.69220       -4.96790        4.27000
Cl         3.93380       -5.48720        1.13230
Si         4.06570       -2.22590        2.48530
Cl         6.05530       -2.62140        1.96830
Cl         3.99520       -1.47470        4.43690
C         -0.27360       -5.16810        1.72990
S          0.45380       -6.69630        1.05820
C         -0.96640       -7.74110        1.50820
H          6.44220        2.52310        1.19070
H          7.47330        2.12460       -0.23670
H          5.80570        2.76990       -0.49150
H          3.64300        1.51750        0.24020
H          4.28980        1.29100        1.90130
H         -0.46010       -5.28830        2.81730
H         -1.22930       -4.94240        1.21290
H         -1.11880       -7.72500        2.60750
H         -0.76400       -8.78390        1.18880
H         -1.88280       -7.38010        0.99640
