72
mol43-E-0
C          4.51080        3.64640       -1.28140
S          2.97540        2.78130       -1.73230
C          2.86870        1.85720       -0.17820
Si         1.37270        0.73310       -0.10150
Si         2.07730       -1.25110       -1.13730
Si         3.04120       -0.78210       -3.17030
Cl         3.27020       -2.47920       -4.37980
Cl         2.14100        0.64550       -4.35740
Cl         4.96610        0.00190       -2.90400
Si         3.96180       -2.29590       -0.35660
Cl         4.91580       -3.44330       -1.82580
Cl         5.43640       -0.92330        0.22240
Cl         3.64860       -3.73090        1.10780
Si         0.28980       -2.71020       -1.05360
Si        -0.26810       -3.36760       -3.17700
Cl        -2.21810       -4.13020       -3.27470
Cl         0.07020       -1.96460       -4.66650
Cl         0.91000       -4.95600       -3.86590
Si         0.64430       -4.87100       -0.35500
Cl        -0.92670       -6.10890       -0.97940
Cl         2.39360       -5.71210       -1.14770
Cl         0.71080       -5.22870        1.67610
Si         1.08030        0.40270        2.23080
Si         0.59230        2.21210        3.57160
Cl         0.29250        1.65920        5.56900
Cl         2.15690        3.60160        3.68280
Cl        -1.09350        3.30910        3.11600
Si         3.17310        0.14040        3.26170
Cl         4.38490       -1.53090        3.12670
Cl         3.09260        0.31710        5.34310
Cl         4.49720        1.64730        2.65810
Si        -0.59860       -1.21020        2.49800
Si         0.24250       -2.71430        4.04150
Cl         0.35740       -1.72450        5.88330
Cl        -0.95150       -4.40890        4.37060
Cl         2.15070       -3.49070        3.87300
Si        -2.51480       -0.80550        3.78340
Cl        -4.28010       -1.14480        2.74360
Cl        -2.68280        1.01760        4.77840
Cl        -2.84660       -2.10970        5.39080
Si        -1.34780       -1.68930        0.28150
Si        -2.26980        0.19950       -0.82140
Si        -4.05220        1.30290        0.13550
Cl        -5.79690        0.14480        0.20680
Cl        -3.80040        2.04600        2.04280
Cl        -4.63060        2.98280       -0.97290
Si        -3.60750       -0.50700       -2.61670
Cl        -4.84230        1.00380       -3.36690
Cl        -2.91630       -1.27740       -4.40800
Cl        -4.93070       -2.01510       -2.01400
Si        -0.52550        1.72830       -1.15500
Si        -0.64520        3.93590       -0.37970
Cl        -2.39200        4.56950        0.56330
Cl         0.96910        4.46920        0.81300
Cl        -0.46900        5.43950       -1.82980
Si        -0.70800        2.38760       -3.36500
Cl        -2.46810        3.50850       -3.54180
Cl        -0.94080        1.01440       -4.89230
Cl         0.83850        3.62970       -4.05100
C         -2.77220       -2.90510        0.28580
S         -2.60970       -4.17460        1.56750
C         -4.16200       -5.01800        1.13370
H          5.32380        2.91230       -1.10210
H          4.34950        4.25920       -0.37000
H          4.80730        4.31410       -2.11590
H          2.82770        2.56460        0.66770
H          3.77260        1.23310       -0.07170
H         -3.71440       -2.35090        0.43520
H         -2.80610       -3.39750       -0.70130
H         -5.01960       -4.32360        1.25350
H         -4.30350       -5.88450        1.81130
H         -4.11770       -5.38400        0.08670
