36
mol48-B-2
C         -6.07660       -1.65870        3.53370
S         -5.23100       -1.59980        1.92360
C         -3.77580       -0.70860        2.55800
Si        -2.54340       -0.39670        1.18590
Si        -0.63960        0.48780        1.96510
Br         0.57940       -1.09630        3.01010
Br        -1.10150        2.12610        3.44360
Si         0.52570        1.30440        0.23640
Br         2.72100        0.86990        0.51340
Br         0.26190        3.54010        0.11690
Si        -3.46710        1.06410       -0.23900
Br        -5.57210        0.42110       -0.72890
Br        -3.56080        3.09990        0.72460
Si        -2.24140        1.15900       -2.11030
Br        -3.22340       -0.08590       -3.71430
Br        -2.09460        3.28540       -2.84480
Si        -0.19680        0.36270       -1.66310
Si        -0.35130       -1.85250       -1.34670
Br         1.58190       -2.61450       -0.47250
Br        -0.71650       -2.93400       -3.29200
Si        -2.04640       -2.27260        0.06110
Br        -1.45150       -3.93530        1.46410
Br        -3.85930       -2.94670       -1.09690
C          1.02570        0.79400       -3.01170
S          0.40320        0.26000       -4.63710
C          1.85460        0.86520       -5.55260
H         -7.04700       -2.18230        3.41370
H         -5.45760       -2.21340        4.26950
H         -6.26680       -0.62940        3.90260
H         -4.08440        0.26800        2.98520
H         -3.27920       -1.31530        3.34350
H          1.17390        1.89380       -3.01140
H          1.98960        0.29100       -2.78970
H          2.77160        0.35120       -5.19680
H          1.71740        0.64900       -6.63180
H          1.96130        1.96160       -5.41660
