180
mol41-C-0
C         -4.06980        4.75870       -0.10310
S         -3.70720        2.99810       -0.38990
C         -1.92320        3.16790       -0.12520
Si        -0.98740        1.55910       -0.30830
Si        -1.01990        0.67760        1.92240
Ge        -0.22770        1.92820        3.79910
C         -0.53750        3.83980        3.65720
C          1.58370        1.62820        4.41300
C         -1.19770        1.46440        5.42500
Ge        -3.29660        0.77380        2.67950
C         -3.89230       -0.18340        4.26860
C         -3.84830        2.60650        3.07200
C         -4.54320        0.23140        1.34070
Si         0.11810       -1.36780        1.77000
Ge         1.77460       -1.96890        3.38750
C          2.13340       -3.88260        3.43370
C          3.52450       -1.29510        3.04550
C          1.39750       -1.52930        5.24710
Ge        -1.33400       -3.04240        2.68020
C         -0.82790       -4.91740        2.45400
C         -1.49180       -2.95260        4.61910
C         -3.12110       -2.86110        1.99710
Si        -2.01180        0.14720       -2.01430
Ge        -2.71650        1.62100       -3.78170
C         -2.29170        0.99690       -5.56790
C         -4.62280        1.99890       -3.95590
C         -2.22880        3.47360       -3.54770
Ge        -4.17480       -0.94380       -2.03130
C         -5.75480        0.12250       -1.58370
C         -4.59190       -1.56440       -3.83640
C         -4.43990       -2.52400       -0.95250
Si        -0.38310       -1.56110       -2.35230
Ge         0.32800       -1.84400       -4.67200
C          0.61170       -0.52640       -6.09160
C          1.89450       -2.98910       -4.81430
C         -0.98210       -2.89190       -5.67760
Ge        -1.10540       -3.86040       -2.31260
C         -2.71520       -4.39910       -3.26640
C          0.17460       -5.19910       -2.95060
C         -1.33730       -4.48430       -0.53980
Si         1.12480       -1.34990       -0.44410
Si         2.66300        0.49860       -0.77150
Ge         3.97600       -0.00650       -2.70920
C          5.72770        0.81640       -2.99430
C          4.47740       -1.87560       -2.90240
C          3.04770        0.49820       -4.28950
Ge         4.64130        1.03620        0.54370
C          5.93400       -0.42300        0.44390
C          5.57260        2.55300       -0.23600
C          4.84340        1.49070        2.43390
Si         1.19860        2.34740       -0.95430
Ge         1.83760        4.25420        0.32600
C          2.46210        3.70830        2.03560
C          0.54270        5.69580        0.59290
C          3.34110        5.27080       -0.38250
Ge         1.43400        3.57690       -2.99290
C          3.26290        3.99150       -3.50100
C          0.67740        2.78500       -4.57050
C          0.59040        5.33850       -2.88270
C          1.98070       -3.01260       -0.47570
S          3.66370       -2.95890        0.19500
C          3.98230       -4.73020       -0.07090
H         -3.75100        5.05680        0.91690
H         -3.54530        5.38540       -0.85380
H         -5.16250        4.92180       -0.20000
H         -1.51680        3.91160       -0.82670
H         -1.74560        3.52870        0.89850
H         -0.36720        4.16080        2.62070
H          0.15410        4.37660        4.33770
H         -1.57420        4.08490        3.95480
H          2.02670        0.87610        3.75130
H          2.16460        2.56860        4.42090
H          1.58470        1.25530        5.45440
H         -2.13200        2.04760        5.49400
H         -0.58310        1.72000        6.31170
H         -1.41660        0.38240        5.44270
H         -3.78800        0.44460        5.17280
H         -3.33260       -1.11290        4.39520
H         -4.96690       -0.43340        4.15680
H         -3.75030        2.81920        4.15240
H         -4.91340        2.74260        2.79660
H         -3.24180        3.32930        2.50670
H         -5.30400        1.02070        1.18390
H         -5.05580       -0.69970        1.64860
H         -3.93960        0.08680        0.44110
H          3.10550       -4.05880        3.93730
H          1.35530       -4.40070        4.02200
H          2.18970       -4.28720        2.40630
H          3.43250       -0.76680        2.09540
H          3.83810       -0.63630        3.87710
H          4.25350       -2.12450        2.95410
H          0.55560       -0.82290        5.30700
H          2.29440       -1.07270        5.71160
H          1.15450       -2.44890        5.81390
H          0.09110       -5.00330        1.84840
H         -0.65400       -5.38670        3.44240
H         -1.65500       -5.47590        1.97270
H         -0.71960       -3.59030        5.08980
H         -2.48610       -3.33700        4.92530
H         -1.37240       -1.91520        4.96880
H         -3.84390       -2.68150        2.81470
H         -3.41850       -3.78710        1.46810
H         -3.09060       -2.00420        1.30820
H         -1.47930        1.60410       -6.00930
H         -2.01380       -0.06720       -5.51560
H         -3.18670        1.09390       -6.21530
H         -4.75260        2.78300       -4.72990
H         -5.18380        1.11880       -4.29670
H         -5.02950        2.39770       -3.00910
H         -3.02010        4.01800       -2.99780
H         -2.09760        3.96150       -4.53330
H         -1.31710        3.49640       -2.95700
H         -6.40660        0.24450       -2.47050
H         -5.47290        1.11450       -1.20410
H         -6.34820       -0.39980       -0.80640
H         -4.90410       -2.62520       -3.80640
H         -3.71440       -1.43220       -4.49310
H         -5.45380       -1.01920       -4.25960
H         -4.95360       -2.26650       -0.01060
H         -5.09560       -3.23800       -1.48800
H         -3.46470       -2.97810       -0.75630
H         -0.15370       -0.63780       -6.88530
H          0.55110        0.49180       -5.73020
H          1.59630       -0.69340       -6.57010
H          2.07290       -3.51910       -3.86690
H          2.78190       -2.39550       -5.08910
H          1.73000       -3.73710       -5.61620
H         -1.97210       -2.40460       -5.64650
H         -0.66230       -2.95290       -6.73780
H         -1.04230       -3.92890       -5.31330
H         -2.52910       -5.36720       -3.77410
H         -3.55710       -4.54930       -2.56900
H         -2.97410       -3.65850       -4.03030
H          1.12580       -5.15240       -2.39160
H         -0.26080       -6.20440       -2.77660
H          0.36050       -5.10630       -4.03400
H         -2.32400       -4.97410       -0.41750
H         -1.25000       -3.58310        0.07040
H         -0.53530       -5.21100       -0.30870
H          6.38110        0.70070       -2.11230
H          6.21760        0.29980       -3.84470
H          5.63730        1.88130       -3.27110
H          4.82550       -2.05290       -3.93970
H          3.61920       -2.51550       -2.69250
H          5.30230       -2.14840       -2.22120
H          3.29660       -0.20450       -5.10350
H          1.98080        0.48670       -4.02460
H          3.38080        1.50190       -4.60060
H          6.95160       -0.01980        0.62160
H          5.91300       -0.90630       -0.54080
H          5.72180       -1.17920        1.22240
H          5.17240        2.76120       -1.23490
H          5.44280        3.44680        0.40430
H          6.65670        2.33260       -0.30830
H          5.35680        2.46590        2.54510
H          5.48820        0.73800        2.92970
H          3.88460        1.53470        2.94740
H          2.16620        2.65230        2.11920
H          3.55850        3.82900        2.07510
H          2.01830        4.34060        2.82560
H         -0.49420        5.33660        0.62860
H          0.63120        6.44010       -0.22170
H          0.77280        6.21080        1.54780
H          3.91990        5.70560        0.45750
H          2.98090        6.10270       -1.01600
H          4.00010        4.62730       -0.97590
H          3.37830        3.90620       -4.60020
H          3.51860        5.03000       -3.21430
H          3.93810        3.28400       -3.00350
H          1.47340        2.49860       -5.28020
H          0.09140        1.91870       -4.22610
H          0.04110        3.51580       -5.10170
H          0.18680        5.61890       -3.87640
H          1.33400        6.10220       -2.58950
H         -0.23570        5.33510       -2.14890
H          1.37710       -3.73310        0.10810
H          2.01040       -3.35080       -1.51890
H          3.93200       -4.96750       -1.15400
H          4.99730       -4.97410        0.30360
H          3.23820       -5.34070        0.48170
