72
mol42-D-0
C         -0.25640        5.69560        2.03170
S         -0.04910        4.51140        0.66610
C          0.08710        3.06120        1.75160
Si         0.32730        1.48730        0.76400
Si         2.38140        1.49690       -0.22360
Si         4.05940        1.76500        1.23820
F          3.52610        2.64740        2.57100
F          4.70340        0.29530        1.72900
F          5.30170        2.62880        0.49330
Si         2.75690        3.34890       -1.44200
F          4.02000        3.05860       -2.52000
F          1.41210        3.88350       -2.28650
F          3.22300        4.58820       -0.39750
Si         2.64150       -0.42170       -1.40180
Si         4.65310       -1.38220       -1.10820
F          4.72930       -2.39060        0.22780
F          5.82860       -0.18130       -0.97480
F          5.00020       -2.31800       -2.46760
Si         2.84300        0.01210       -3.59170
F          4.47520        0.22180       -3.96040
F          2.05160        1.42670       -4.02550
F          2.25940       -1.28750       -4.49190
Si        -1.32730        1.16270       -0.78400
Si        -1.48500        2.61440       -2.49390
F         -2.91820        2.28470       -3.31840
F         -1.56110        4.20010       -1.93260
F         -0.23300        2.47000       -3.59640
Si        -3.34890        1.54170        0.14300
F         -4.19220        2.67380       -0.77900
F         -4.29520        0.15370        0.22020
F         -3.17380        2.18720        1.68670
Si        -1.04340       -0.91090       -1.65920
Si        -2.81270       -2.22970       -1.27830
F         -4.15690       -1.56520       -2.04930
F         -3.16500       -2.38270        0.35270
F         -2.52470       -3.75320       -1.93940
Si        -1.17960       -0.95180       -3.90450
F         -2.75050       -0.53710       -4.35410
F         -0.86880       -2.51880       -4.44230
F         -0.13040        0.10240       -4.67770
Si         0.91090       -1.82550       -0.92320
Si         0.74140       -2.18220        1.33140
Si         2.52260       -3.02760        2.41230
F          3.06190       -4.44030        1.67160
F          2.03760       -3.41430        3.98010
F          3.79120       -1.94180        2.53830
Si        -0.70990       -3.85810        1.74970
F         -2.08160       -3.33570        2.57050
F         -1.16700       -4.60890        0.31540
F          0.03520       -5.02690        2.70990
Si         0.22250       -0.19630        2.29760
Si        -1.74490       -0.27300        3.36430
F         -2.07140        1.23610        4.04040
F         -1.63730       -1.39930        4.61440
F         -3.00770       -0.72320        2.35900
Si         1.47290        0.26070        4.11130
F          1.05960        1.78940        4.68880
F          3.12610        0.21570        3.83770
F          1.11780       -0.87320        5.30710
C          1.09680       -3.41980       -1.88990
S          2.51380       -4.39160       -1.30050
C          2.26510       -5.74610       -2.48940
H         -1.16500        5.44610        2.61830
H          0.63520        5.67560        2.69240
H         -0.36910        6.71590        1.61140
H         -0.83120        2.96500        2.36310
H          0.95680        3.18680        2.42630
H          1.24320       -3.16590       -2.95820
H          0.16780       -4.01340       -1.78560
H          2.34770       -5.36220       -3.52760
H          3.04650       -6.51650       -2.32820
H          1.26750       -6.20860       -2.33760
