36
mol46-A-0
C          0.35610       -0.74420       -6.09610
S          1.34020       -0.50640       -4.58380
C         -0.10920       -0.29600       -3.50090
Si         0.44610       -0.00820       -1.74060
Si         1.73990        1.80850       -1.59830
F          0.99710        3.09600       -2.39330
F          3.23120        1.48450       -2.31470
Si         2.04560        2.33320        0.55330
F          1.06820        3.64660        0.95540
F          3.66310        2.73000        0.81330
Si        -1.34480        0.30030       -0.44420
F         -2.46280       -0.93060       -0.72100
F         -2.04130        1.79110       -0.81050
Si        -0.72160        0.27420        1.70260
F         -1.52410        1.50260        2.53260
F         -1.10960       -1.21780        2.38480
Si         1.48780        0.58460        1.82820
Si         2.49550       -1.23190        1.01090
F          2.30740       -2.51600        2.08660
F          4.13590       -0.90520        0.79990
Si         1.58100       -1.76680       -0.95770
F          2.79870       -2.19560       -2.04170
F          0.52150       -3.06200       -0.75440
C          2.03020        0.84760        3.59640
S          1.25250        2.35140        4.26850
C          2.03300        2.19750        5.90520
H         -0.29720       -1.63530       -5.99000
H         -0.26370        0.15500       -6.29320
H          1.04230       -0.90220       -6.95320
H         -0.74060       -1.20830       -3.52960
H         -0.70530        0.57950       -3.83230
H          3.13490        0.95150        3.61660
H          1.72870       -0.03640        4.19590
H          3.13790        2.23190        5.80580
H          1.72840        1.24410        6.38500
H          1.70350        3.04210        6.54420
