72
mol57-A-1
C         -7.26980       -6.73550        3.00840
S         -6.02110       -5.41210        3.03020
C         -4.67370       -6.47630        2.42840
Ge        -3.03430       -5.44360        2.28010
Ge        -1.20250       -6.83730        1.62780
C         -0.64560       -7.97110        3.10340
C         -1.73150       -7.95860        0.13270
Ge         0.64430       -5.45790        1.00310
C          0.77680       -5.39950       -0.93290
C          2.27960       -6.25210        1.68670
Ge        -3.36620       -3.75860        0.61950
C         -4.99840       -2.77630        1.00010
C         -3.53790       -4.58170       -1.13070
Ge        -1.50330       -2.26340        0.63770
C         -2.03080       -0.58940        1.46760
C         -0.94390       -1.89280       -1.18570
Ge         0.30340       -3.24530        1.86360
Ge        -0.34260       -3.36130        4.17860
C         -0.44200       -1.58560        4.96390
C          0.91870       -4.42290        5.20580
Ge        -2.50050       -4.37760        4.35270
C         -2.49660       -5.66960        5.80410
C         -3.82250       -3.01310        4.75240
C          1.88580       -2.15340        1.51470
S          2.72720       -1.66680        3.05810
C          4.05820       -0.72060        2.25660
H         -7.39190       -7.12790        1.97740
H         -6.96650       -7.55730        3.69010
H         -8.24010       -6.32290        3.35280
H         -4.50300       -7.31040        3.14040
H         -4.92780       -6.88510        1.42850
H         -1.50740       -8.56610        3.46590
H         -0.25390       -7.33980        3.92480
H          0.15530       -8.65520        2.75600
H         -2.00300       -7.32220       -0.73240
H         -2.60510       -8.57510        0.42770
H         -0.88630       -8.62010       -0.14710
H         -0.21170       -5.15420       -1.36440
H          1.51670       -4.62790       -1.22890
H          1.10180       -6.39120       -1.30810
H          3.14870       -5.64540        1.36070
H          2.37990       -7.28080        1.28450
H          2.24130       -6.29610        2.79290
H         -4.90170       -2.25190        1.97070
H         -5.17430       -2.03220        0.19650
H         -5.85130       -3.48410        1.04470
H         -4.34290       -5.34420       -1.10140
H         -2.58160       -5.06290       -1.41000
H         -3.78890       -3.80300       -1.87940
H         -2.53470       -0.79730        2.43110
H         -1.13130        0.03560        1.64240
H         -2.73330       -0.05330        0.79740
H         -0.69410       -2.84010       -1.70140
H         -1.77010       -1.38810       -1.72660
H         -0.05260       -1.23290       -1.17090
H         -0.85710       -1.66400        5.98960
H         -1.10110       -0.94140        4.35050
H          0.57060       -1.13860        5.01320
H          1.07530       -5.39870        4.70680
H          0.51010       -4.59200        6.22280
H          1.88220       -3.88210        5.28730
H         -2.16760       -5.16970        6.73790
H         -1.80230       -6.49880        5.56590
H         -3.52080       -6.07060        5.94350
H         -3.70100       -2.16460        4.05190
H         -3.67490       -2.65260        5.79070
H         -4.83970       -3.44290        4.64750
H          1.55320       -1.22780        1.00260
H          2.56970       -2.69390        0.82790
H          4.64720       -1.38450        1.59640
H          3.63400        0.11940        1.66840
H          4.72930       -0.30900        3.03770
