108
mol58-A-1
C         -4.56980       -2.97620       -3.20280
S         -3.11040       -1.89840       -3.06510
C         -3.01780       -2.00960       -1.25200
Ge        -1.51900       -0.95590       -0.57660
Ge        -1.64050        1.27120       -1.46520
C         -3.43180        1.99460       -1.16770
C         -3.59860        3.35980       -1.81740
C         -1.23270        1.29280       -3.37640
C         -2.24880        0.49690       -4.17970
Ge         0.00630        2.60370       -0.34430
C          0.91020        3.76320       -1.63300
C         -0.00280        4.87890       -2.11850
C         -0.83770        3.68260        1.04860
C          0.18970        4.51460        1.80110
Ge        -1.49740       -0.81880        1.83270
C         -1.64680       -2.58850        2.64880
C         -3.00670       -3.22100        2.38990
C         -3.01950        0.29200        2.37300
C         -3.25420        0.29040        3.87710
Ge         0.62370        0.07620        2.54360
C          0.37070        1.33820        4.01400
C          0.15160        0.61100        5.33560
C          1.66630       -1.45880        3.16560
C          3.07010       -1.07200        3.59760
Ge         1.65000        1.17350        0.65950
Ge         2.34140       -0.46870       -0.95150
C          3.81910       -1.55880       -0.28270
C          5.06010       -0.72160       -0.00760
C          2.90360        0.52990       -2.53700
C          3.63420       -0.34070       -3.54870
Ge         0.50690       -1.96160       -1.37410
C          0.32670       -2.30990       -3.28770
C          1.28710       -3.40010       -3.74850
C          0.86020       -3.64950       -0.45240
C         -0.31700       -4.60740       -0.55790
C          3.16260        2.35570        1.03790
S          3.78000        2.14440        2.73400
C          5.09300        3.39310        2.56820
H         -5.42720       -2.52770       -2.65900
H         -4.34370       -3.98000       -2.78660
H         -4.84020       -3.08360       -4.27310
H         -3.95910       -1.64260       -0.80320
H         -2.88300       -3.06600       -0.95340
H         -3.61590        2.07890       -0.07840
H         -4.17520        1.29620       -1.60210
H         -2.89480        4.08890       -1.37060
H         -3.42010        3.29410       -2.91070
H         -4.63380        3.72420       -1.65020
H         -0.22350        0.87010       -3.53630
H         -1.23030        2.34330       -3.73050
H         -2.15760       -0.58080       -3.94680
H         -3.28030        0.84260       -3.96030
H         -2.05130        0.63400       -5.26340
H          1.80610        4.20750       -1.15310
H          1.23900        3.15520       -2.49910
H          0.55050        5.52440       -2.83220
H         -0.33970        5.50440       -1.26600
H         -0.88480        4.45700       -2.63970
H         -1.35440        3.01240        1.75990
H         -1.58950        4.35420        0.58830
H         -0.32660        5.15350        2.54760
H          0.89980        3.85360        2.33820
H          0.74950        5.16770        1.09960
H         -1.49380       -2.48450        3.74330
H         -0.84550       -3.24150        2.24820
H         -3.82140       -2.56920        2.76650
H         -3.06460       -4.19820        2.91330
H         -3.15190       -3.39670        1.30790
H         -3.92800       -0.09940        1.87580
H         -2.85860        1.32920        2.02710
H         -4.25010        0.73100        4.09300
H         -3.23060       -0.73970        4.28620
H         -2.49650        0.91240        4.38650
H          1.26330        1.98790        4.10260
H         -0.50150        1.98230        3.78600
H         -0.18490        1.33520        6.10660
H          1.09710        0.14660        5.68180
H         -0.61510       -0.18370        5.22860
H          1.13390       -1.92540        4.02040
H          1.73040       -2.20220        2.35140
H          3.58810       -1.96250        4.01100
H          3.03910       -0.28570        4.37850
H          3.64640       -0.70940        2.72610
H          3.50040       -2.07250        0.64630
H          4.05670       -2.33240       -1.04240
H          5.89370       -1.38740        0.29890
H          4.86840       -0.00460        0.81330
H          5.36740       -0.16370       -0.91580
H          3.57660        1.34930       -2.20870
H          2.01470        0.97990       -3.01640
H          4.04430        0.30140       -4.35630
H          2.93640       -1.06330       -4.00910
H          4.47450       -0.88500       -3.07250
H         -0.71530       -2.62860       -3.49860
H          0.52880       -1.37300       -3.84370
H          0.95800       -4.38950       -3.37060
H          1.30180       -3.43730       -4.85780
H          2.31550       -3.20320       -3.38120
H          1.76160       -4.11660       -0.90060
H          1.06920       -3.44810        0.61350
H         -0.02250       -5.60100       -0.15990
H         -1.16580       -4.23220        0.04430
H         -0.63940       -4.72630       -1.61260
H          3.96880        2.14720        0.30590
H          2.83600        3.40550        0.90290
H          5.64580        3.46590        3.52700
H          4.65060        4.38330        2.33230
H          5.80160        3.09690        1.76680
