84
mol52-E-1
C          5.24720        3.29200       -0.02580
S          3.67130        2.86460       -0.82920
C          3.23910        1.57050        0.37740
Si         1.58880        0.79470       -0.06580
Si         1.10590       -0.92400        1.30660
O          2.51540       -1.92980        1.42980
C          2.29730       -2.94100        2.38140
O          0.62550       -0.34440        2.87250
C          1.66000        0.40690        3.45710
Si        -0.57980       -2.10200        0.34600
O         -1.78110       -2.79160        1.40700
C         -1.58770       -2.38120        2.73300
O          0.16230       -3.35270       -0.59960
C         -0.36160       -4.60750       -0.24560
Si         1.71300        0.01900       -2.15570
O          2.59800        1.21150       -3.05550
C          3.17620        0.63110       -4.19520
O          2.61080       -1.47030       -2.04990
C          2.18360       -2.39340       -3.01970
Si        -0.43330       -0.17050       -2.86830
O         -1.11280        1.32890       -3.43700
C         -0.20480        2.01440       -4.26110
O         -0.55610       -1.40750       -4.08190
C         -1.59600       -1.10790       -4.98050
Si        -1.65660       -0.73140       -1.06440
Si        -2.04060        1.21320       -0.01260
O         -3.17970        2.07710       -1.00040
C         -3.49530        3.31290       -0.41220
O         -2.64660        0.99550        1.60000
C         -3.87700        0.31700        1.56810
Si        -0.06970        2.30650        0.12360
O         -0.04010        3.49170       -1.14500
C          1.20410        4.14350       -1.17410
O          0.12800        3.06070        1.67550
C         -0.82950        4.07290        1.85020
C         -3.27950       -1.48770       -1.61400
S         -2.97940       -3.08000       -2.44560
C         -4.73880       -3.40520       -2.77480
H          5.73480        4.10810       -0.59730
H          5.92060        2.40970       -0.01400
H          5.06440        3.63970        1.01230
H          4.02440        0.79010        0.39610
H          3.16770        2.02760        1.38320
H          3.22190       -3.54790        2.46280
H          2.09070       -2.52370        3.39110
H          1.48440       -3.62690        2.06550
H          1.43450        0.52700        4.53630
H          2.65520       -0.08700        3.38710
H          1.69310        1.42330        3.01960
H         -2.37330       -2.84960        3.35990
H         -0.60880       -2.72960        3.12550
H         -1.70740       -1.28240        2.83410
H          0.13480       -5.38100       -0.86630
H         -1.45200       -4.66690       -0.45440
H         -0.15120       -4.85240        0.81840
H          2.40530        0.20230       -4.87190
H          3.69880        1.42720       -4.76360
H          3.94100       -0.12710       -3.91780
H          2.22720       -1.98100       -4.04890
H          2.86460       -3.26810       -2.99080
H          1.16680       -2.76830       -2.79420
H         -0.76240        2.79500       -4.81720
H          0.55430        2.53710       -3.64690
H          0.27650        1.35850       -5.01910
H         -1.30680       -0.27840       -5.65880
H         -1.77730       -2.00040       -5.61340
H         -2.55340       -0.87470       -4.46450
H         -4.30050        3.78640       -1.01010
H         -2.62540        4.00090       -0.44040
H         -3.88610        3.19740        0.62270
H         -4.60330        0.77080        0.85720
H         -4.33220        0.37620        2.57760
H         -3.72310       -0.75760        1.34700
H          1.53840        4.48840       -0.16940
H          1.96680        3.49500       -1.64920
H          1.10780        5.04670       -1.81030
H         -0.78650        4.83480        1.04090
H         -0.60850        4.59930        2.80100
H         -1.84790        3.64360        1.94830
H         -3.78190       -0.78040       -2.30550
H         -3.92850       -1.65720       -0.73380
H         -5.30450       -3.44700       -1.82070
H         -4.83530       -4.38120       -3.29300
H         -5.15750       -2.61000       -3.42620
