72
mol57-D-0
C         10.87140       -0.41260        1.22420
S          9.60450       -0.78000       -0.02920
C          8.22940       -0.11050        0.95640
Ge         6.56340       -0.29120       -0.02750
Ge         6.01120       -2.59380       -0.36720
C          5.58050       -3.42930        1.33160
C          7.50700       -3.54640       -1.16090
Ge         4.11960       -2.73090       -1.82220
C          4.71750       -3.31690       -3.57420
C          2.86500       -4.04210       -1.12870
Ge         4.83100        0.73140        1.25930
C          4.87090        0.04670        3.07670
C          5.09570        2.65410        1.31400
Ge         2.72190        0.24030        0.25440
C          1.63600        1.85020        0.19720
C          1.79390       -1.09160        1.31960
Ge         3.05790       -0.58790       -1.96560
Ge         4.51740        0.93610       -3.11880
C          3.85410        2.75320       -2.95000
C          4.68020        0.51530       -5.00970
Ge         6.69890        0.80680       -2.14910
C          7.85110       -0.18550       -3.35810
C          7.42760        2.59220       -1.91680
C          1.28400       -0.79840       -2.75470
S          1.10550        0.20140       -4.26830
C         -0.61080       -0.30260       -4.61000
H         11.86050       -0.74340        0.84650
H         10.90870        0.67930        1.42040
H         10.64610       -0.95610        2.16520
H          8.13930       -0.66670        1.91250
H          8.40180        0.96570        1.16550
H          6.38800       -3.21730        2.06200
H          5.48560       -4.52490        1.18780
H          4.62070       -3.02700        1.70850
H          7.19590       -4.58460       -1.39670
H          8.35210       -3.56980       -0.44340
H          7.82400       -3.03660       -2.09170
H          5.20570       -4.30840       -3.48040
H          5.44590       -2.58860       -3.97980
H          3.84720       -3.39910       -4.25530
H          2.53430       -3.74280       -0.11490
H          1.98600       -4.10340       -1.80220
H          3.36180       -5.03230       -1.07620
H          4.66820       -1.04210        3.07050
H          5.87070        0.23490        3.51840
H          4.09510        0.56150        3.67960
H          6.13190        2.87450        1.64260
H          4.92610        3.07960        0.30650
H          4.37470        3.10360        2.02690
H          1.44830        2.20260        1.23200
H          0.67010        1.62600       -0.29950
H          2.16770        2.64010       -0.36820
H          2.46540       -1.95260        1.50170
H          0.88820       -1.43200        0.77750
H          1.50120       -0.64490        2.29170
H          4.44560        3.42160       -3.60820
H          3.96020        3.08910       -1.90080
H          2.78630        2.78710       -3.24720
H          4.87470       -0.56720       -5.13860
H          3.74820        0.79590       -5.53850
H          5.52470        1.09250       -5.43820
H          7.95250        0.37580       -4.30920
H          7.40190       -1.17590       -3.56590
H          8.85150       -0.31650       -2.90000
H          7.52550        3.08040       -2.90780
H          6.75030        3.19140       -1.27720
H          8.42480        2.52160       -1.43630
H          0.53670       -0.44230       -2.01710
H          1.08430       -1.87340       -2.94340
H         -0.68110       -1.40690       -4.66730
H         -0.92860        0.12870       -5.58110
H         -1.28300        0.07430       -3.81150
