144
mol59-C-1
C         -1.29300       -3.28450       -5.59640
S         -1.45830       -2.97330       -3.81170
C         -0.26030       -1.60000       -3.79010
Ge        -0.03740       -0.84250       -1.99430
Ge         1.97220        0.58340       -1.94630
C          2.02620        1.77370       -3.55730
C          3.19980        2.76230       -3.55780
C          2.03270        0.99690       -4.87450
C          3.56170       -0.60040       -2.16750
C          3.74930       -1.54560       -0.99540
C          4.86480        0.14610       -2.46150
Ge         1.86750        1.78840        0.22250
C          3.74870        1.79970        0.89370
C          4.58670        2.97910        0.39010
C          3.85780        1.71610        2.40960
C          1.12710        3.64550        0.07880
C          1.33050        4.48020        1.34960
C          1.65080        4.43010       -1.12120
Ge        -1.98930        0.60800       -1.57310
C         -1.56700        2.35710       -2.42600
C         -2.50090        3.50830       -2.01500
C         -1.50710        2.26610       -3.95280
C         -3.69100       -0.05500       -2.42840
C         -3.50150       -0.62860       -3.84200
C         -4.77790        1.01970       -2.48010
Ge        -2.03900        0.91800        0.88910
C         -3.17030       -0.41660        1.83700
C         -4.36000       -0.88210        1.00080
C         -3.66570        0.05380        3.20620
C         -2.67420        2.76470        1.33160
C         -4.18530        2.95190        1.14880
C         -2.28280        3.25290        2.72230
Ge         0.26950        0.55670        1.68810
Ge         0.78380       -1.86220        1.77430
C          2.72300       -1.92910        2.27430
C          3.42610       -3.23870        1.91990
C          2.98330       -1.63140        3.75660
C         -0.30430       -2.86720        3.12260
C         -0.63650       -2.05700        4.36960
C          0.31980       -4.20130        3.54970
Ge         0.08080       -2.75980       -0.42500
C          1.21520       -4.22520       -1.18400
C          1.57000       -5.31010       -0.16330
C          0.59260       -4.91000       -2.40780
C         -1.73440       -3.51950       -0.17650
C         -2.54120       -3.50650       -1.46520
C         -1.75050       -4.92510        0.42740
C          0.24590        1.09180        3.59460
S          1.18140        2.59070        4.01180
C          0.78240        2.53500        5.78670
H         -1.96160       -4.12270       -5.88050
H         -1.58620       -2.38060       -6.16990
H         -0.24600       -3.56170       -5.83950
H          0.71220       -1.95100       -4.17350
H         -0.61860       -0.80790       -4.46840
H          1.10430        2.36830       -3.55130
H          4.07000        2.39480       -4.13620
H          3.53090        2.97310       -2.53580
H          2.88550        3.71880       -4.02780
H          2.14790        1.69490       -5.73160
H          2.86590        0.26650       -4.90440
H          1.07460        0.47780       -5.02290
H          3.35940       -1.23220       -3.05070
H          2.77300       -1.74110       -0.52990
H          4.18360       -2.50430       -1.35060
H          4.44670       -1.14160       -0.23830
H          4.98150        1.02150       -1.79860
H          4.89370        0.46220       -3.52040
H          5.74100       -0.52220       -2.31710
H          4.21510        0.88520        0.49660
H          5.63310        2.87750        0.75010
H          4.19540        3.94790        0.75300
H          4.62910        2.99950       -0.70720
H          3.12160        0.99990        2.79820
H          4.86950        1.35810        2.69720
H          3.70410        2.70760        2.87940
H          0.03630        3.53290       -0.06330
H          0.49530        4.31580        2.04500
H          2.28140        4.24180        1.85420
H          1.32320        5.57100        1.13850
H          2.74920        4.55350       -1.07410
H          1.34740        3.94340       -2.05460
H          1.19130        5.44120       -1.15260
H         -0.55430        2.60130       -2.06730
H         -2.94850        4.02740       -2.88990
H         -1.93440        4.27930       -1.45260
H         -3.33890        3.14770       -1.40010
H         -0.93030        1.38250       -4.26930
H         -1.00860        3.17040       -4.36280
H         -2.52200        2.21990       -4.39470
H         -4.09950       -0.87500       -1.82050
H         -4.48390       -0.78530       -4.33680
H         -2.90360        0.03250       -4.48850
H         -3.03280       -1.62240       -3.81290
H         -4.47560        1.86970       -3.12220
H         -5.01720        1.37640       -1.47060
H         -5.71890        0.59620       -2.89220
H         -2.52110       -1.28580        2.02750
H         -4.91940       -0.02150        0.58550
H         -4.01010       -1.53550        0.18870
H         -5.05680       -1.49370        1.61300
H         -4.11700       -0.80120        3.75410
H         -2.83760        0.42800        3.82700
H         -4.44060        0.83530        3.10940
H         -2.15750        3.43660        0.62810
H         -4.57970        2.27040        0.38840
H         -4.74940        2.77150        2.08540
H         -4.39820        3.99490        0.83090
H         -2.58400        4.31510        2.84840
H         -1.19710        3.21090        2.83700
H         -2.76680        2.66400        3.52280
H          3.20960       -1.11830        1.70260
H          3.35490       -3.45200        0.84180
H          3.01290       -4.08230        2.50790
H          4.50960       -3.16050        2.15320
H          2.51180       -0.69560        4.07700
H          4.07470       -1.51330        3.92860
H          2.62730       -2.44530        4.41190
H         -1.26850       -3.10510        2.63750
H         -1.17990       -1.14140        4.08950
H          0.28170       -1.81030        4.93940
H         -1.30790       -2.64080        5.03520
H         -0.43700       -4.81020        4.08920
H          1.17820       -4.05960        4.23030
H          0.65500       -4.79020        2.68630
H          2.15500       -3.74870       -1.52020
H          2.51320       -5.81550       -0.46180
H          1.70320       -4.87940        0.82860
H          0.78180       -6.08390       -0.07290
H          0.08600       -4.19420       -3.05990
H         -0.16000       -5.67190       -2.12630
H          1.38550       -5.41830       -2.99700
H         -2.24010       -2.85580        0.53640
H         -3.59950       -3.77490       -1.26020
H         -2.51710       -2.49280       -1.87690
H         -2.13290       -4.21310       -2.21360
H         -2.76060       -5.14270        0.83580
H         -1.52310       -5.69910       -0.33010
H         -1.02740       -5.01260        1.25170
H         -0.79870        1.22660        3.91210
H          0.65040        0.28210        4.20740
H          1.27580        3.38840        6.29480
H         -0.31500        2.61580        5.93340
H          1.15310        1.58830        6.23240
