156
mol54-D-2
C         -3.88220        4.66620       -1.54110
S         -2.32250        4.04950       -0.83620
C         -2.61800        2.31520       -1.31230
Si        -1.23290        1.11990       -0.80610
Si        -2.17600       -0.76800        0.15900
C         -3.40290       -1.62510       -0.96170
C         -4.12490       -2.72830       -0.47520
C         -5.08630       -3.35570       -1.27250
C         -5.35990       -2.86730       -2.55140
C         -4.68260       -1.74240       -3.02510
C         -3.71930       -1.11860       -2.22760
C         -3.38810       -0.25690        1.51010
C         -4.61950        0.31360        1.13040
C         -5.56580        0.68180        2.09040
C         -5.30750        0.46750        3.44390
C         -4.10850       -0.12750        3.83440
C         -3.16390       -0.49850        2.87370
Si        -0.46050       -2.20960        0.78070
C         -0.67480       -2.79000        2.54500
C          0.32880       -2.61100        3.50390
C          0.17170       -3.10500        4.80170
C         -0.98360       -3.80810        5.14660
C         -1.97260       -4.03300        4.18720
C         -1.81180       -3.54120        2.88870
C         -0.43850       -3.90770       -0.03900
C          0.34380       -4.92620        0.54140
C          0.37140       -6.21070       -0.00860
C         -0.39720       -6.50520       -1.13420
C         -1.20320       -5.51820       -1.70020
C         -1.23310       -4.23480       -1.14790
Si         0.02330        2.26110        0.74920
C         -0.99040        2.88280        2.19930
C         -0.34430        3.49710        3.28510
C         -1.07970        3.98310        4.36950
C         -2.47200        3.89030        4.36670
C         -3.12750        3.32280        3.27340
C         -2.39040        2.82880        2.19350
C          0.63400        3.87370        0.02290
C         -0.22230        4.98960       -0.00530
C          0.21710        6.20900       -0.52920
C          1.51630        6.32980       -1.02570
C          2.37360        5.22880       -1.00300
C          1.93150        4.00920       -0.48430
Si         1.68370        0.87820        1.53320
C          3.37400        1.68360        1.42980
C          3.58020        2.94380        2.01690
C          4.84070        3.54630        1.98560
C          5.91650        2.88530        1.39140
C          5.73150        1.61970        0.83390
C          4.46810        1.02240        0.85460
C          1.41650        0.63050        3.36620
C          2.48990        0.64120        4.27450
C          2.25860        0.47510        5.64390
C          0.95580        0.30930        6.11950
C         -0.11550        0.30650        5.22470
C          0.12100        0.45980        3.85670
Si         1.56510       -1.13640        0.42000
Si         1.85820       -0.73210       -1.82730
C          3.56590       -0.03240       -2.13620
C          4.66770       -0.90350       -2.21780
C          5.95050       -0.40500       -2.46310
C          6.14730        0.96640       -2.63460
C          5.06130        1.83930       -2.55500
C          3.78060        1.34040       -2.30440
C          1.92290       -2.30050       -2.85360
C          2.00030       -3.56580       -2.25700
C          2.07510       -4.72040       -3.04120
C          2.08800       -4.62120       -4.43290
C          2.04790       -3.36540       -5.03960
C          1.98240       -2.21120       -4.25440
Si         0.13490        0.58790       -2.58330
C         -0.81260       -0.37610       -3.87380
C         -1.05280       -1.73710       -3.67850
C         -1.72800       -2.49320       -4.63940
C         -2.18430       -1.88280       -5.80870
C         -1.95540       -0.52070       -6.01720
C         -1.26760        0.23000       -5.05810
C          0.75960        2.09140       -3.51350
C          1.64800        1.92310       -4.58950
C          2.09690        3.02550       -5.32160
C          1.64260        4.30640       -5.00480
C          0.73530        4.48250       -3.95960
C          0.29570        3.38120       -3.21980
C          2.98040       -2.30160        0.91270
S          3.80500       -1.85940        2.47680
C          4.98580       -3.24250        2.41970
H         -3.91660        4.45910       -2.63100
H         -4.74520        4.18210       -1.03840
H         -3.94220        5.76210       -1.38150
H         -2.75110        2.27670       -2.40550
H         -3.56080        1.97710       -0.84360
H         -3.94880       -3.10350        0.52010
H         -5.62500       -4.21500       -0.89500
H         -6.10500       -3.35130       -3.16910
H         -4.90370       -1.35180       -4.00990
H         -3.22020       -0.25000       -2.60680
H         -4.86720        0.45640        0.08850
H         -6.50360        1.12590        1.78300
H         -6.03950        0.75260        4.18810
H         -3.91190       -0.30930        4.88320
H         -2.27360       -0.97550        3.21570
H          1.22880       -2.08430        3.25840
H          0.94730       -2.94260        5.53900
H         -1.10630       -4.18970        6.15180
H         -2.85980       -4.59580        4.44640
H         -2.57370       -3.75000        2.15510
H          0.91960       -4.74180        1.43660
H          0.98330       -6.97980        0.44430
H         -0.37610       -7.49940       -1.56100
H         -1.81260       -5.74840       -2.56450
H         -1.88470       -3.51990       -1.59650
H          0.72840        3.58510        3.30840
H         -0.56930        4.43480        5.21010
H         -3.04280        4.26970        5.20420
H         -4.20820        3.27200        3.25890
H         -2.92010        2.42360        1.35520
H         -1.23020        4.92600        0.38130
H         -0.44980        7.06120       -0.54760
H          1.85640        7.27340       -1.43160
H          3.37970        5.31720       -1.39210
H          2.60560        3.17990       -0.48040
H          2.76730        3.47210        2.48550
H          4.98380        4.52430        2.42650
H          6.89390        3.34940        1.37030
H          6.56760        1.09930        0.38540
H          4.35840        0.04290        0.42810
H          3.50790        0.76840        3.93430
H          3.09020        0.47800        6.33650
H          0.77680        0.18390        7.17940
H         -1.12720        0.18110        5.58790
H         -0.70160        0.46790        3.17090
H          4.54170       -1.97090       -2.09810
H          6.79180       -1.08320       -2.52270
H          7.14040        1.35250       -2.82410
H          5.21090        2.90370       -2.68200
H          2.96540        2.02900       -2.24520
H          2.01990       -3.66930       -1.19100
H          2.13050       -5.69240       -2.56880
H          2.14250       -5.51560       -5.03990
H          2.07120       -3.28470       -6.11860
H          1.95790       -1.25360       -4.74580
H         -0.69340       -2.20720       -2.78590
H         -1.90020       -3.54860       -4.47390
H         -2.71390       -2.46410       -6.55220
H         -2.30830       -0.04620       -6.92350
H         -1.10370        1.28180       -5.24570
H          2.00960        0.94450       -4.85630
H          2.79390        2.88540       -6.13760
H          1.98650        5.16020       -5.57390
H          0.37070        5.47330       -3.72170
H         -0.41150        3.54600       -2.42850
H          3.73450       -2.29790        0.10380
H          2.59120       -3.32810        1.00750
H          5.63360       -3.20160        3.31910
H          4.44100       -4.20940        2.41260
H          5.62280       -3.16240        1.51430
