48
mol53-C-0
C          8.39720        2.17380       -3.49830
S          6.69990        2.12000       -4.15190
C          5.91280        2.35460       -2.52660
Si         4.05210        2.36830       -2.70300
Si         3.14380        2.47200       -0.66990
C          3.96320        3.77030        0.29690
N          4.48570        4.59960        0.91140
C          3.35820        0.86840        0.15180
N          3.49340       -0.15550        0.67310
Si         0.96610        2.93240       -0.85550
C          0.06260        1.98770        0.40300
N         -0.51140        1.38370        1.20570
C          0.69470        4.70780       -0.59760
N          0.52310        5.84030       -0.43570
Si         3.30910        0.51290       -3.69890
C          3.69440        0.59640       -5.47030
N          3.93890        0.65300       -6.59960
C          4.11530       -0.93630       -2.96320
N          4.62940       -1.85930       -2.49190
Si         1.09410        0.36850       -3.43160
C          0.71060       -0.78770       -2.08680
N          0.46630       -1.52240       -1.22720
C          0.35180       -0.21390       -4.98130
N         -0.12110       -0.58300       -5.97060
Si         0.28430        2.38580       -2.91510
Si         1.17280        3.85920       -4.33700
C          0.30770        5.44690       -4.18560
N         -0.24380        6.45890       -4.08670
C          0.99600        3.22580       -6.02820
N          0.88470        2.81930       -7.10560
Si         3.33970        4.13770       -3.86500
C          4.27170        4.30130       -5.41330
N          4.86470        4.40410       -6.40130
C          3.55870        5.63150       -2.85850
N          3.69700        6.58250       -2.21450
C         -1.57940        2.45280       -3.07630
S         -2.37020        1.30550       -1.89450
C         -4.08810        1.67500       -2.37030
H          8.58690        3.15220       -3.00960
H          8.55080        1.35260       -2.76770
H          9.11200        2.04670       -4.33690
H          6.23410        3.32010       -2.08370
H          6.19570        1.52290       -1.84830
H         -1.85710        2.23510       -4.12830
H         -1.90940        3.48450       -2.83760
H         -4.77380        1.05800       -1.75460
H         -4.31110        2.74730       -2.19110
H         -4.24980        1.42940       -3.43840
