156
mol54-B-1
C         -1.92820       -5.18790       -2.60740
S         -1.63610       -4.13120       -1.15540
C         -0.78050       -2.82250       -2.09200
Si        -0.20240       -1.35630       -1.03390
Si         1.90640       -0.64400       -1.63190
C          3.17420       -1.96610       -1.26130
C          3.71000       -2.77710       -2.27720
C          4.67400       -3.74440       -1.97460
C          5.11960       -3.90260       -0.66010
C          4.59850       -3.09510        0.35210
C          3.62670       -2.13910        0.04770
C          2.09310       -0.34520       -3.47360
C          3.31020        0.14410       -3.97820
C          3.48530        0.33820       -5.35100
C          2.45650        0.02030       -6.23840
C          1.25520       -0.49680       -5.75220
C          1.07580       -0.67960       -4.37830
Si         2.43890        1.22250       -0.40020
C          2.82780        2.74180       -1.42080
C          3.64370        3.75130       -0.87810
C          3.96030        4.88810       -1.62740
C          3.47070        5.02790       -2.92740
C          2.66010        4.03270       -3.47500
C          2.34000        2.89950       -2.72310
C          4.08100        0.93930        0.46040
C          5.19880        0.54070       -0.29150
C          6.43690        0.33960        0.32470
C          6.58020        0.56620        1.69410
C          5.48790        1.00560        2.44290
C          4.24800        1.19770        1.82730
Si        -1.68750        0.34510       -1.48060
C         -1.72610        0.69760       -3.31780
C         -2.50490       -0.11360       -4.16320
C         -2.56120        0.14000       -5.53680
C         -1.84560        1.20800       -6.08090
C         -1.06950        2.01860       -5.25130
C         -1.00970        1.76060       -3.87950
C         -3.47300       -0.13810       -1.17120
C         -3.83980       -1.46440       -0.90760
C         -5.17980       -1.80710       -0.70690
C         -6.17110       -0.82800       -0.78190
C         -5.82350        0.49020       -1.07950
C         -4.48410        0.83000       -1.28890
Si        -1.16450        2.16060       -0.17130
C         -1.00150        3.73080       -1.18310
C          0.11110        4.57420       -1.05540
C          0.18900        5.76630       -1.78070
C         -0.84720        6.13110       -2.64090
C         -1.97000        5.31150       -2.76230
C         -2.05310        4.12540       -2.02790
C         -2.61590        2.50190        0.95560
C         -3.30040        1.43500        1.53960
C         -4.40990        1.65490        2.35900
C         -4.83810        2.95870        2.61340
C         -4.16110        4.03750        2.03950
C         -3.05830        3.81220        1.20920
Si         0.71970        1.67270        1.06310
Si         0.38490       -0.13300        2.48150
C          1.91070       -0.39020        3.55940
C          2.16810        0.53120        4.59420
C          3.26810        0.36990        5.44090
C          4.11710       -0.72480        5.28210
C          3.85700       -1.66420        4.28500
C          2.75510       -1.50420        3.44060
C         -0.82880        0.23370        3.85570
C         -1.05790       -0.73510        4.84780
C         -1.91970       -0.46850        5.91550
C         -2.53540        0.78000        6.02110
C         -2.27610        1.76540        5.06730
C         -1.41690        1.49570        3.99860
Si        -0.31600       -1.94750        1.20710
C         -2.02170       -2.65130        1.59650
C         -2.95220       -1.99760        2.41810
C         -4.19230       -2.57620        2.70130
C         -4.51180       -3.83290        2.18880
C         -3.58560       -4.51560        1.40100
C         -2.34690       -3.93520        1.11540
C          0.68000       -3.47780        1.60960
C          1.37180       -4.18500        0.61950
C          2.06150       -5.35950        0.93210
C          2.04410       -5.85370        2.23740
C          1.32040       -5.18270        3.22480
C          0.62820       -4.01010        2.90930
C          1.30240        3.16340        2.08390
S          0.03680        4.45450        2.31460
C          1.11120        5.54310        3.29980
H         -0.96070       -5.49040       -3.05920
H         -2.54080       -4.64530       -3.35730
H         -2.47510       -6.09820       -2.28740
H          0.10260       -3.26530       -2.58900
H         -1.46330       -2.45890       -2.87670
H          3.38430       -2.67580       -3.30280
H          5.07740       -4.36960       -2.76050
H          5.86750       -4.64900       -0.42680
H          4.94180       -3.21140        1.37170
H          3.23420       -1.51230        0.82230
H          4.12080        0.39260       -3.31440
H          4.42120        0.73120       -5.72650
H          2.59270        0.16650       -7.30200
H          0.46140       -0.75740       -6.44000
H          0.14490       -1.09010       -4.03420
H          4.04370        3.66370        0.12280
H          4.58770        5.65970       -1.20040
H          3.71540        5.90800       -3.50750
H          2.27430        4.14020       -4.48050
H          1.71510        2.15260       -3.16330
H          5.11490        0.36450       -1.35020
H          7.28560        0.01160       -0.26120
H          7.53950        0.41430        2.17170
H          5.60350        1.20490        3.50020
H          3.43350        1.56200        2.42000
H         -3.07630       -0.94170       -3.76630
H         -3.16220       -0.49070       -6.17880
H         -1.88880        1.40430       -7.14430
H         -0.50900        2.84420       -5.67060
H         -0.40620        2.39360       -3.26540
H         -3.10230       -2.24050       -0.87170
H         -5.45020       -2.83420       -0.50010
H         -7.20840       -1.09300       -0.62310
H         -6.59170        1.24920       -1.15150
H         -4.24200        1.85260       -1.52250
H          0.91860        4.32510       -0.39240
H          1.05410        6.40770       -1.67430
H         -0.78390        7.05180       -3.20610
H         -2.77900        5.59660       -3.42230
H         -2.93190        3.51250       -2.13530
H         -2.97780        0.43430        1.33590
H         -4.93220        0.81530        2.79890
H         -5.69310        3.13310        3.25340
H         -4.49230        5.04900        2.23540
H         -2.55390        4.66530        0.77770
H          1.50750        1.36800        4.76920
H          3.45650        1.09050        6.22600
H          4.96940       -0.85030        5.93700
H          4.50550       -2.52300        4.16960
H          2.57880       -2.26130        2.71080
H         -0.57030       -1.69540        4.79970
H         -2.10270       -1.22720        6.66520
H         -3.20170        0.98800        6.84830
H         -2.73950        2.73960        5.15500
H         -1.22340        2.27050        3.28460
H         -2.73980       -1.04780        2.85370
H         -4.90320       -2.05070        3.32580
H         -5.47150       -4.28140        2.41010
H         -3.82330       -5.49930        1.01760
H         -1.63680       -4.50710        0.53580
H          1.38950       -3.83030       -0.39100
H          2.60880       -5.88600        0.16080
H          2.57910       -6.76260        2.48010
H          1.28810       -5.57540        4.23280
H          0.05220       -3.52260        3.67920
H          1.62750        2.81900        3.07880
H          2.17670        3.61370        1.57830
H          1.99290        5.85200        2.70020
H          0.53960        6.44820        3.58990
H          1.44580        5.01890        4.21900
