48
mol53-B-0
C         -2.56260       -2.09570        4.32100
S         -1.15680       -1.46380        3.34990
C         -0.13330       -0.98740        4.78490
Si         1.49060       -0.25330        4.21640
Si         2.73040       -1.69310        3.03510
C          1.76040       -2.43440        1.69260
N          1.14300       -2.90510        0.83480
C          3.33710       -2.99340        4.14530
N          3.72460       -3.82050        4.85530
Si         4.45970       -0.59810        2.13320
C          5.93720       -1.64840        2.21300
N          6.87860       -2.31870        2.26580
C          4.08940       -0.19670        0.40280
N          3.85080        0.06120       -0.69940
Si         2.64770        0.35450        6.02620
C          2.65180       -1.00630        7.22630
N          2.65480       -1.87560        7.98950
C          1.86560        1.81720        6.76190
N          1.36700        2.75110        7.22830
Si         4.74650        0.84140        5.43930
C          5.33540        2.27730        6.37890
N          5.70980        3.19450        6.97620
C          5.81240       -0.59030        5.76750
N          6.49060       -1.50450        5.97410
Si         4.78710        1.30440        3.25730
Si         3.09020        2.68330        2.80720
C          3.27660        3.34510        1.12810
N          3.39610        3.76490        0.05680
C          3.10390        4.04460        4.00680
N          3.11280        4.91040        4.77410
Si         1.16270        1.56360        2.96370
C         -0.10080        2.61500        3.73160
N         -0.90550        3.28480        4.22350
C          0.61910        1.05630        1.30830
N          0.27490        0.73060        0.25290
C          6.38470        2.13880        2.76250
S          7.80990        1.11710        3.25410
C          9.05000        2.27670        2.59970
H         -3.02840       -1.26700        4.89360
H         -2.22330       -2.88840        5.01970
H         -3.31650       -2.52470        3.63000
H          0.07600       -1.84150        5.46170
H         -0.67800       -0.21400        5.36400
H          6.38240        2.28510        1.66240
H          6.43740        3.12550        3.26810
H         10.06320        1.86430        2.78300
H          8.96310        3.25740        3.11200
H          8.90860        2.40970        1.50680
