144
mol59-E-0
C          4.82820        4.59660        0.23490
S          3.70410        3.35110        0.93970
C          2.87010        2.99210       -0.63310
Ge         1.44690        1.62860       -0.53240
Ge        -0.35120        2.08500        1.11930
C          0.12310        1.66400        3.01630
C          1.11580        2.65810        3.63400
C          0.61170        0.23020        3.15340
C         -0.85460        4.01570        1.19050
C          0.33610        4.96410        1.38920
C         -1.90890        4.29980        2.26240
Ge        -2.22440        0.59510        0.44520
C         -3.69240        1.46560       -0.60170
C         -4.00470        2.91000       -0.23070
C         -5.00730        0.68060       -0.57600
C         -2.99750       -0.17980        2.11270
C         -3.64050        0.89310        2.99320
C         -4.01010       -1.30990        1.89240
Ge         2.55830       -0.56720       -0.21570
C          3.47690       -0.89830        1.53290
C          4.68690       -1.83220        1.43820
C          3.88500        0.37850        2.25240
C          3.94460       -0.48120       -1.65190
C          5.17820        0.34790       -1.25970
C          4.38840       -1.83240       -2.20490
Ge         0.75990       -2.27220       -0.29070
C          1.25500       -3.82830       -1.44520
C          0.19330       -4.92890       -1.45390
C          2.61150       -4.45370       -1.09820
C          0.46590       -3.02740        1.53610
C          1.49910       -4.07850        1.94490
C         -0.93840       -3.58600        1.71700
Ge        -1.31630       -1.14860       -1.08110
Ge        -0.91940       -0.12570       -3.27730
C         -2.59920        0.51560       -4.16800
C         -3.81420       -0.35640       -3.87140
C         -2.49560        0.72550       -5.68690
C         -0.03270       -1.60180       -4.27720
C         -0.59210       -1.86910       -5.67120
C          1.48180       -1.46260       -4.31620
Ge         0.47780        1.84450       -2.81610
C          1.85600        2.05510       -4.24700
C          1.27480        1.85090       -5.64830
C          2.58410        3.40210       -4.21880
C         -0.69820        3.45210       -2.83150
C         -1.17890        3.85980       -4.22570
C         -0.03300        4.66340       -2.18720
C         -2.69200       -2.55550       -1.28780
S         -2.69680       -3.34430       -2.93200
C         -4.07300       -4.47380       -2.55610
H          4.24490        5.42970       -0.20980
H          5.47220        5.00020        1.04270
H          5.47330        4.13290       -0.54030
H          3.61860        2.63310       -1.36140
H          2.46620        3.94050       -1.02050
H         -0.79740        1.74710        3.62210
H          0.58150        3.55100        4.00850
H          1.63030        2.23260        4.52120
H          1.87490        2.97100        2.90120
H          1.47520        0.12080        3.84150
H         -0.18560       -0.41800        3.56220
H          0.90270       -0.12700        2.15720
H         -1.29030        4.27240        0.21630
H          0.58810        5.11750        2.45490
H          0.08920        5.96260        0.96900
H          1.23090        4.59230        0.87230
H         -1.50840        4.13730        3.28190
H         -2.78160        3.64670        2.13470
H         -2.25580        5.35230        2.18390
H         -3.33050        1.47990       -1.63820
H         -4.80700        3.30330       -0.89180
H         -4.36910        2.98350        0.81060
H         -3.13570        3.55060       -0.40470
H         -5.65250        1.00170       -1.42180
H         -4.84200       -0.39950       -0.67770
H         -5.56590        0.86830        0.36370
H         -2.15260       -0.61860        2.66920
H         -4.52640        1.33570        2.49610
H         -2.92810        1.69830        3.22340
H         -3.96520        0.44830        3.95810
H         -5.01840       -0.92780        1.64410
H         -4.10810       -1.90360        2.82640
H         -3.68790       -1.99560        1.09990
H          2.74620       -1.41240        2.18240
H          5.55030       -1.33620        0.96090
H          5.00120       -2.13780        2.45920
H          4.44880       -2.75090        0.88310
H          4.76930        0.84560        1.77730
H          3.04170        1.08390        2.25510
H          4.14400        0.15260        3.30890
H          3.46400        0.06840       -2.47520
H          4.94860        1.06820       -0.45850
H          6.02070       -0.28720       -0.92010
H          5.54120        0.91910       -2.14110
H          3.52310       -2.40880       -2.56810
H          5.06380       -1.67660       -3.07320
H          4.94430       -2.41140       -1.44120
H          1.33790       -3.43570       -2.46870
H          0.34900       -5.59740       -2.32720
H         -0.80940       -4.50140       -1.51960
H          0.23030       -5.54590       -0.53430
H          3.09630       -4.84040       -2.02010
H          3.26980       -3.70960       -0.64030
H          2.52930       -5.30390       -0.39250
H          0.56040       -2.21510        2.26120
H          1.28290       -5.05860        1.47790
H          1.46960       -4.22310        3.04620
H          2.52020       -3.75540        1.67820
H         -1.13650       -4.41990        1.01650
H         -1.07570       -3.95680        2.75550
H         -1.66580       -2.77750        1.55630
H         -2.80460        1.50990       -3.73170
H         -3.88090       -0.56650       -2.79510
H         -3.76690       -1.30860       -4.43560
H         -4.74260        0.17510       -4.17130
H         -2.70480       -0.20200       -6.25510
H         -3.25250        1.47310       -6.00760
H         -1.50610        1.10370       -5.98510
H         -0.24380       -2.51080       -3.69010
H         -0.09050       -2.75650       -6.11290
H         -1.67280       -2.10510       -5.60610
H         -0.41840       -1.00990       -6.34740
H          1.94880       -2.45090       -4.51290
H          1.81800       -1.09430       -3.33620
H          1.82910       -0.78510       -5.11420
H          2.61290        1.26740       -4.08650
H          0.65710        2.71080       -5.97030
H          0.65130        0.94900       -5.68430
H          2.09830        1.72590       -6.38340
H          1.93360        4.22120       -4.58290
H          3.47230        3.35820       -4.88470
H          2.94090        3.65630       -3.21300
H         -1.58600        3.18390       -2.22380
H         -2.06330        4.52610       -4.13590
H         -1.47010        2.98920       -4.82010
H         -0.39460        4.40940       -4.78420
H          0.37170        4.38190       -1.21530
H         -0.77840        5.47270       -2.03300
H          0.79660        5.06170       -2.80130
H         -2.54490       -3.33260       -0.51900
H         -3.68950       -2.12610       -1.13280
H         -3.80090       -5.13750       -1.70920
H         -4.98430       -3.89340       -2.30230
H         -4.28200       -5.09790       -3.44870
