132
mol50-E-1
C          4.54620        1.98710        3.98650
S          3.67840        2.01250        2.38680
C          2.33210        0.90390        2.92070
Si         0.97870        0.48360        1.63390
Si        -0.62770        2.16580        1.93450
N         -1.81530        1.55090        3.20340
C         -3.02960        2.36100        3.36670
C         -1.23080        1.26860        4.52360
N          0.01870        3.81540        2.42150
C          1.27540        4.15390        1.75560
C          0.15140        4.04680        3.86590
Si        -1.70650        2.46200       -0.10670
N         -3.36560        3.19530        0.20520
C         -4.20770        3.37100       -0.98420
C         -3.34910        4.45020        0.98220
N         -0.75330        3.57150       -1.20960
C         -1.17250        3.45210       -2.61220
C         -0.80060        4.99050       -0.82630
Si         1.96320        0.61780       -0.50250
N          2.37890        2.38860       -0.75710
C          2.22830        2.89220       -2.12560
C          3.67850        2.81170       -0.20430
N          3.47490       -0.41580       -0.72610
C          3.98470       -0.98680        0.51330
C          4.59890        0.14720       -1.49370
Si         0.34030       -0.21700       -1.97980
N          0.66790        0.54160       -3.63430
C          1.95930        0.14010       -4.20550
C         -0.35920        0.41080       -4.67890
N          0.44510       -2.04540       -2.11610
C          1.80640       -2.58450       -2.00220
C         -0.18750       -2.59640       -3.32270
Si        -1.74750        0.29220       -0.99610
Si        -2.22540       -1.20520        0.76740
N         -2.83130       -2.86360        0.23540
C         -3.92890       -3.45440        1.01050
C         -3.11720       -2.99200       -1.19300
N         -3.42630       -0.36570        1.88430
C         -4.62970        0.11330        1.20120
C         -3.81550       -1.07640        3.11040
Si        -0.18490       -1.54860        1.88340
N         -0.59630       -1.99320        3.62190
C         -1.08970       -3.36840        3.79350
C          0.43440       -1.72530        4.62670
N          0.80080       -2.88370        1.09100
C          1.81090       -3.50570        1.95890
C          0.00390       -3.93820        0.45230
C         -3.00520        0.20340       -2.43010
S         -4.74750       -0.07610       -1.98350
C         -5.35430       -0.05300       -3.69930
H          3.88890        2.39260        4.78370
H          5.45460        2.61930        3.91470
H          4.84970        0.95000        4.23990
H          1.84770        1.37170        3.78860
H          2.79420       -0.02400        3.28360
H         -3.65500        1.97070        4.19870
H         -2.79780        3.41710        3.59470
H         -3.66040        2.28520        2.47240
H         -0.13920        1.21180        4.48930
H         -1.48560        2.04080        5.28250
H         -1.62460        0.29960        4.89100
H          2.12660        3.59940        2.19100
H          1.47640        5.24140        1.86140
H          1.20150        3.95630        0.67680
H         -0.83480        4.03400        4.35810
H          0.83200        3.31540        4.33990
H          0.55860        5.06360        4.05720
H         -4.09100        2.54100       -1.68750
H         -5.27410        3.39460       -0.67570
H         -3.98220        4.31540       -1.52290
H         -2.48500        4.50680        1.66740
H         -3.32490        5.35620        0.34280
H         -4.27240        4.50790        1.59600
H         -0.53020        4.08700       -3.26050
H         -1.04270        2.42090       -2.95440
H         -2.22320        3.75490       -2.77000
H          0.08540        5.50920       -1.24970
H         -1.70920        5.49680       -1.21670
H         -0.76060        5.12870        0.26770
H          1.25690        2.61160       -2.53350
H          2.26450        4.00270       -2.11990
H          3.01690        2.52200       -2.80640
H          4.02230        2.15490        0.61290
H          4.47620        2.84230       -0.97680
H          3.59060        3.84130        0.19730
H          4.73700       -1.77410        0.29060
H          4.45840       -0.20410        1.14100
H          3.16640       -1.47370        1.05240
H          5.11600       -0.67680       -2.02880
H          5.34630        0.64770       -0.84000
H          4.28170        0.87200       -2.25130
H          1.90070       -0.83850       -4.72560
H          2.72780        0.06140       -3.43290
H          2.29950        0.90790       -4.93240
H         -0.12270        1.10650       -5.51270
H         -0.40830       -0.60790       -5.10680
H         -1.34530        0.70920       -4.32760
H          2.17190       -2.47140       -0.97210
H          1.81340       -3.68000       -2.19470
H          2.50510       -2.10660       -2.71470
H          0.48910       -2.55280       -4.20140
H         -0.44610       -3.66190       -3.14490
H         -1.12910       -2.08000       -3.56790
H         -4.87390       -2.89450        0.87230
H         -3.67600       -3.52360        2.07880
H         -4.10380       -4.50120        0.67990
H         -2.37060       -2.45310       -1.78400
H         -4.13680       -2.63680       -1.43790
H         -3.04460       -4.06000       -1.48930
H         -4.35860        0.89570        0.47920
H         -5.16810       -0.71120        0.69740
H         -5.32950        0.59240        1.92090
H         -2.99760       -1.67300        3.51540
H         -4.70660       -1.72130        2.96010
H         -4.08380       -0.33830        3.89230
H         -1.72170       -3.41900        4.70540
H         -1.71920       -3.67840        2.94900
H         -0.27050       -4.10230        3.91690
H          0.81150       -0.70350        4.53350
H         -0.00990       -1.79940        5.64240
H          1.27210       -2.44750        4.57000
H          1.39910       -4.34400        2.55420
H          2.62620       -3.91770        1.32720
H          2.27350       -2.77630        2.63590
H          0.66770       -4.71760        0.01780
H         -0.55860       -3.52840       -0.39670
H         -0.68180       -4.43230        1.16550
H         -2.96150        1.15410       -2.98880
H         -2.71140       -0.61150       -3.11130
H         -5.13550        0.92890       -4.16820
H         -6.45180       -0.21270       -3.69630
H         -4.87490       -0.86510       -4.28470
