144
mol59-A-1
C          4.29470        4.39040       -2.10290
S          3.42420        3.41570       -0.83670
C          2.55570        2.35410       -2.03300
Ge         1.37800        1.00310       -1.20820
Ge         2.87810       -0.84310       -0.48230
C          3.16500       -1.94380       -2.12610
C          3.75480       -3.33940       -1.90940
C          4.00080       -1.22990       -3.18830
C          4.69030       -0.20660        0.12750
C          5.68590       -1.35350        0.29470
C          5.33400        0.88140       -0.74800
Ge         1.60120       -2.10040        1.26050
C          1.94570       -4.07470        1.21370
C          1.03870       -4.90340        2.12910
C          3.40720       -4.41880        1.50740
C          2.00370       -1.46710        3.10830
C          3.43940       -0.97990        3.29860
C          1.67390       -2.48520        4.19990
Ge         0.27140        2.13510        0.70800
C         -0.38480        3.97650        0.27980
C          0.74270        4.98290        0.03380
C         -1.33980        4.52750        1.34010
C          1.60070        2.34820        2.16700
C          1.18790        3.31940        3.27410
C          2.97180        2.73820        1.63980
Ge        -1.52080        0.59960        1.41880
C         -3.23070        0.75410        0.41290
C         -3.53350        2.15750       -0.10220
C         -4.44460        0.21870        1.18620
C         -2.06120        0.70150        3.34060
C         -0.93530        0.38840        4.32150
C         -2.71950        2.03490        3.71440
Ge        -0.78880       -1.65360        0.76270
Ge        -1.12220       -1.99850       -1.67110
C         -3.04470       -2.19250       -2.20880
C         -3.24130       -3.00280       -3.49330
C         -3.91970       -2.79710       -1.11490
C         -0.13010       -3.67820       -2.04890
C          0.11660       -3.96500       -3.53000
C         -0.76040       -4.89760       -1.37550
Ge        -0.21190       -0.01000       -2.82360
C         -1.79470        1.13660       -3.19450
C         -1.45100        2.61260       -3.27930
C         -2.59350        0.72930       -4.43320
C          0.72440       -0.40420       -4.55230
C         -0.14640       -1.10550       -5.59740
C          1.35870        0.83470       -5.17710
C         -2.04260       -2.88910        1.65910
S         -1.90710       -2.88910        3.46860
C         -3.21440       -4.12960        3.72340
H          4.92750        5.15080       -1.60150
H          3.56180        4.90750       -2.75680
H          4.94380        3.72920       -2.71410
H          1.97160        2.99240       -2.71580
H          3.32280        1.83030       -2.62760
H          2.16040       -2.08160       -2.54010
H          3.06790       -3.98200       -1.35240
H          3.90550       -3.84360       -2.88830
H          4.73130       -3.30440       -1.39850
H          5.07800       -1.25340       -2.92790
H          3.66070       -0.19160       -3.32310
H          3.88860       -1.74520       -4.16640
H          4.57450        0.24560        1.11930
H          6.06840       -1.69370       -0.68830
H          5.22860       -2.19420        0.83700
H          6.55760       -1.01170        0.89310
H          4.84300        1.85550       -0.61570
H          5.33180        0.62450       -1.81750
H          6.39100        1.04290       -0.44520
H          1.70900       -4.42530        0.20100
H          0.95270       -5.93790        1.73180
H          1.44040       -4.98990        3.15700
H          0.02920       -4.47990        2.17140
H          3.54830       -5.52100        1.51810
H          3.72720       -4.01350        2.48660
H          4.06580       -4.02030        0.72420
H          1.34010       -0.61430        3.27100
H          4.15690       -1.65090        2.79190
H          3.53460        0.05520        2.93450
H          3.70990       -0.93840        4.37580
H          2.45060       -3.27290        4.26230
H          1.63150       -1.97610        5.18690
H          0.69130       -2.94430        4.02800
H         -0.95920        3.92610       -0.65250
H          0.34000        5.87660       -0.48920
H          1.20440        5.32730        0.97800
H          1.53180        4.54790       -0.59550
H         -0.80330        4.90730        2.23020
H         -2.04330        3.74820        1.66270
H         -1.92710        5.36980        0.91600
H          1.69870        1.35850        2.62060
H          0.12730        3.19820        3.52850
H          1.36690        4.37350        2.98880
H          1.78450        3.11580        4.18910
H          3.25600        2.02150        0.86600
H          3.72720        2.69120        2.45320
H          2.97460        3.75740        1.20790
H         -3.10100        0.09650       -0.46040
H         -4.36440        2.11310       -0.83860
H         -2.65570        2.56930       -0.61900
H         -3.84540        2.83480        0.71580
H         -4.80540        0.93650        1.94680
H         -4.21250       -0.73110        1.69670
H         -5.28310        0.03370        0.48130
H         -2.83230       -0.08220        3.48580
H         -0.06800        1.04840        4.16640
H         -0.61870       -0.65950        4.21810
H         -1.28820        0.51480        5.36730
H         -3.24930        1.93020        4.68520
H         -1.97740        2.84260        3.82620
H         -3.46230        2.35140        2.96410
H         -3.43370       -1.17470       -2.40650
H         -2.61090       -2.62600       -4.30840
H         -4.29430       -2.91370       -3.83660
H         -3.02960       -4.07750       -3.33140
H         -4.91520       -3.08660       -1.51490
H         -3.44770       -3.69820       -0.67710
H         -4.11850       -2.03900       -0.34320
H          0.85140       -3.53810       -1.58340
H          0.70400       -3.15630       -3.98770
H         -0.82550       -4.11190       -4.08680
H          0.72330       -4.88920       -3.63960
H         -0.72430       -4.78460       -0.28090
H         -1.80600       -5.04980       -1.70050
H         -0.18210       -5.81480       -1.61720
H         -2.46090        1.00520       -2.33270
H         -2.37350        3.22720       -3.20390
H         -0.79530        2.86290       -2.44160
H         -0.93920        2.86100       -4.22950
H         -2.12790        1.12510       -5.35800
H         -3.61890        1.15260       -4.37000
H         -2.68500       -0.36640       -4.50770
H          1.55150       -1.09060       -4.33380
H         -0.80460       -1.84330       -5.12440
H         -0.75560       -0.39140       -6.18240
H          0.50200       -1.64680       -6.31970
H          2.17190        1.20820       -4.53450
H          1.81890        0.57990       -6.15600
H          0.60370        1.62640       -5.34360
H         -3.06630       -2.57540        1.43710
H         -1.93160       -3.91540        1.27570
H         -2.93530       -5.08430        3.23090
H         -4.17690       -3.76070        3.31190
H         -3.33450       -4.30910        4.81140
