156
mol54-D-1
C         -5.01340        3.43600       -1.40050
S         -4.18200        2.02660       -0.60540
C         -2.54660        2.39400       -1.32100
Si        -1.18090        1.17740       -0.81250
Si        -2.15480       -0.69630        0.14960
C         -3.39230       -1.53390       -0.97410
C         -4.13220       -2.62620       -0.48960
C         -5.10140       -3.23840       -1.28930
C         -5.36480       -2.74530       -2.56850
C         -4.66930       -1.63070       -3.04020
C         -3.69830       -1.02210       -2.24040
C         -3.36190       -0.16740        1.49840
C         -4.58360        0.42210        1.11650
C         -5.52620        0.80430        2.07470
C         -5.27400        0.58530        3.42860
C         -4.08510       -0.02810        3.82130
C         -3.14430       -0.41300        2.86240
Si        -0.46290       -2.16430        0.77420
C         -0.68980       -2.74220        2.53780
C          0.31440       -2.57910        3.49890
C          0.14700       -3.07120        4.79610
C         -1.01970       -3.75670        5.13820
C         -2.01000       -3.96600        4.17660
C         -1.83900       -3.47600        2.87870
C         -0.46520       -3.86220       -0.04630
C          0.30020       -4.89280        0.53520
C          0.30930       -6.17720       -0.01540
C         -0.46140       -6.45940       -1.14270
C         -1.25090       -5.46000       -1.70990
C         -1.26230       -4.17650       -1.15710
Si         0.08930        2.29850        0.74610
C         -0.91780        2.93490        2.19440
C         -0.26470        3.53870        3.28180
C         -0.99490        4.03540        4.36500
C         -2.38850        3.96390        4.35910
C         -3.05020        3.40710        3.26420
C         -2.31850        2.90240        2.18560
C          0.72610        3.90200        0.02190
C         -0.11290        5.03080       -0.00750
C          0.34620        6.24360       -0.52980
C          1.64810        6.34470       -1.02350
C          2.48840        5.23070       -0.99960
C          2.02660        4.01780       -0.48240
Si         1.72670        0.89000        1.53290
C          3.42920        1.66940        1.43350
C          3.65350        2.92600        2.02160
C          4.92320        3.50920        1.99340
C          5.99000        2.83210        1.40100
C          5.78680        1.56980        0.84250
C          4.51430        0.99190        0.86020
C          1.45180        0.64550        3.36520
C          2.52330        0.63930        4.27570
C          2.28660        0.47610        5.64450
C          0.98040        0.33010        6.11740
C         -0.08890        0.34410        5.22030
C          0.15280        0.49440        3.85290
Si         1.57960       -1.12200        0.41840
Si         1.88370       -0.72120       -1.82810
C          3.60250       -0.04760       -2.13300
C          4.69090       -0.93530       -2.21270
C          5.98180       -0.45640       -2.45510
C          6.19990        0.91190       -2.62540
C          5.12720        1.80120       -2.54770
C          3.83850        1.32190       -2.30000
C          1.92650       -2.28990       -2.85510
C          1.98320       -3.55650       -2.25900
C          2.04200       -4.71170       -3.04360
C          2.05940       -4.61210       -4.43530
C          2.03980       -3.35540       -5.04130
C          1.99030       -2.20080       -4.25560
Si         0.18240        0.62540       -2.58700
C         -0.77710       -0.32330       -3.88000
C         -1.03850       -1.68060       -3.68600
C         -1.72310       -2.42580       -4.64860
C         -2.16760       -1.80790       -5.81860
C         -1.91750       -0.44930       -6.02590
C         -1.22030        0.29030       -5.06500
C          0.83200        2.11970       -3.51510
C          1.72000        1.93830       -4.58930
C          2.18720        3.03410       -5.31990
C          1.75190        4.32170       -5.00340
C          0.84520        4.51110       -3.96000
C          0.38720        3.41630       -3.22180
C          2.97590       -2.30900        0.91340
S          3.80380       -1.88030        2.47950
C          4.96340       -3.28120        2.42420
H         -4.54300        4.38820       -1.07780
H         -4.95230        3.34100       -2.50460
H         -6.08090        3.44240       -1.09930
H         -2.25880        3.41300       -1.01590
H         -2.63370        2.38160       -2.42340
H         -3.96390       -3.00460        0.50580
H         -5.65400       -4.08960       -0.91340
H         -6.11590       -3.21760       -3.18800
H         -4.88230       -1.23620       -4.02530
H         -3.18510       -0.16100       -2.61810
H         -4.82690        0.56920        0.07410
H         -6.45640        1.26280        1.76550
H         -6.00320        0.88130        4.17140
H         -3.89360       -0.21330        4.87040
H         -2.26210       -0.90380        3.20600
H          1.22280       -2.06610        3.25550
H          0.92340       -2.92110        5.53510
H         -1.15040       -4.13690        6.14300
H         -2.90630       -4.51530        4.43360
H         -2.60240       -3.67290        2.14330
H          0.87680       -4.71770        1.43180
H          0.90840       -6.95580        0.43840
H         -0.45450       -7.45360       -1.57000
H         -1.86200       -5.68030       -2.57570
H         -1.90200       -3.45140       -1.60660
H          0.80920        3.61040        3.30750
H         -0.47940        4.47890        5.20690
H         -2.95520        4.35160        5.19560
H         -4.13160        3.37280        3.24730
H         -2.85250        2.50570        1.34600
H         -1.12250        4.98250        0.37700
H         -0.30750        7.10590       -0.54910
H          2.00350        7.28330       -1.42820
H          3.49660        5.30390       -1.38650
H          2.68790        3.17830       -0.47750
H          2.84780        3.46650        2.48880
H          5.08020        4.48470        2.43510
H          6.97430        3.28120        1.38230
H          6.61580        1.03680        0.39550
H          4.39060        0.01430        0.43290
H          3.54390        0.75110        3.93770
H          3.11670        0.46590        6.33900
H          0.79730        0.20690        7.17670
H         -1.10310        0.23400        5.58130
H         -0.66810        0.51550        3.16530
H          4.54840       -2.00070       -2.09390
H          6.81280       -1.14740       -2.51320
H          7.19920        1.28280       -2.81260
H          5.29340        2.86330       -2.67380
H          3.03380        2.02280       -2.24220
H          1.99900       -3.66080       -1.19300
H          2.08150       -5.68460       -2.57160
H          2.10150       -5.50680       -5.04260
H          2.06660       -3.27470       -6.12030
H          1.98150       -1.24270       -4.74660
H         -0.68820       -2.15660       -2.79280
H         -1.91180       -3.47850       -4.48410
H         -2.70450       -2.38060       -6.56350
H         -2.26110        0.03100       -6.93270
H         -1.03980        1.33950       -5.25170
H          2.06710        0.95440       -4.85590
H          2.88370        2.88370       -6.13450
H          2.11000        5.17040       -5.57130
H          0.49530        5.50720       -3.72240
H         -0.31910        3.59150       -2.43180
H          3.73170       -2.31640        0.10610
H          2.57080       -3.32940        1.00690
H          5.60980       -3.25060        3.32500
H          4.40390       -4.23970        2.41550
H          5.60350       -3.21040        1.52020
