156
mol55-E-2
C          0.11870        6.29970       -0.17920
S          0.71530        4.83680        0.72400
C          0.02800        3.63150       -0.46280
Si         0.32640        1.79030       -0.06720
Si         0.97200        1.80370        2.23570
C          2.45570        2.98010        2.56530
C          3.72710        2.53870        2.99690
F          3.96110        1.25960        3.31440
C          4.76970        3.44170        3.22770
F          5.98740        2.98390        3.61290
C          4.55380        4.81020        3.10990
F          5.56470        5.68230        3.34940
C          3.28400        5.28180        2.79620
F          3.05330        6.61800        2.75500
C          2.23790        4.38570        2.55510
F          1.00060        4.91440        2.40340
C         -0.21100        2.66110        3.46350
C          0.19540        2.87430        4.80010
F          1.48600        2.70730        5.16970
C         -0.68900        3.41090        5.74140
F         -0.28820        3.58350        7.02570
C         -1.96450        3.81530        5.35250
F         -2.81850        4.34450        6.26350
C         -2.33040        3.74380        4.01020
F         -3.53390        4.22510        3.61150
C         -1.44660        3.20410        3.07020
F         -1.78290        3.26490        1.77620
Si         1.06300       -0.47500        2.85920
C         -0.39580       -0.76800        4.04040
C         -0.31800       -1.59360        5.19240
F          0.78140       -2.33060        5.47560
C         -1.39860       -1.68340        6.07710
F         -1.30480       -2.46370        7.18260
C         -2.57100       -0.97240        5.82900
F         -3.61160       -1.05210        6.69520
C         -2.68230       -0.20500        4.67230
F         -3.83220        0.46520        4.41850
C         -1.61350       -0.13510        3.77330
F         -1.77270        0.51710        2.61200
C          2.56180       -0.87440        3.97450
C          2.65500       -0.28590        5.25920
F          1.61780        0.39700        5.78830
C          3.77470       -0.49550        6.07020
F          3.84420        0.08830        7.29250
C          4.80280       -1.33060        5.64200
F          5.88420       -1.54020        6.43330
C          4.69130       -1.99150        4.42180
F          5.65950       -2.85950        4.03510
C          3.57580       -1.78100        3.60430
F          3.48150       -2.51560        2.48580
Si         2.19520        0.97220       -1.25870
C          1.91210        1.17930       -3.11640
C          2.58620        2.14930       -3.89620
F          3.40580        3.07140       -3.33890
C          2.39910        2.19850       -5.28290
F          3.04690        3.13540       -6.01950
C          1.55080        1.28710       -5.91250
F          1.37720        1.33530       -7.25660
C          0.87250        0.33480       -5.15450
F          0.03630       -0.54540       -5.75930
C          1.04540        0.29400       -3.76870
F          0.35130       -0.60160       -3.04800
C          3.86100        1.88510       -0.95900
C          3.90450        3.19770       -0.44490
F          2.78340        3.85750       -0.13170
C          5.11360        3.88790       -0.30780
F          5.11740        5.16530        0.14740
C          6.31180        3.28350       -0.66960
F          7.48320        3.95190       -0.52580
C          6.30000        2.00200       -1.20770
F          7.46570        1.41820       -1.58310
C          5.09150        1.31950       -1.37820
F          5.15720        0.09180       -1.92540
Si         2.36460       -1.32380       -0.76320
C          4.07610       -1.74020       -0.08070
C          4.71710       -0.82600        0.76460
F          4.06310        0.27360        1.16540
C          6.01200       -1.05690        1.23590
F          6.61180       -0.14660        2.04290
C          6.67600       -2.23430        0.89690
F          7.92810       -2.46690        1.36310
C          6.03710       -3.18580        0.10120
F          6.66950       -4.34780       -0.19810
C          4.74390       -2.95060       -0.38140
F          4.15380       -3.93000       -1.10480
C          2.29730       -2.37680       -2.37560
C          1.66420       -3.63730       -2.41470
F          1.14600       -4.18490       -1.30980
C          1.66460       -4.41920       -3.57510
F          1.09100       -5.64780       -3.56540
C          2.29660       -3.96620       -4.72680
F          2.28820       -4.72330       -5.85210
C          2.97900       -2.75610       -4.70370
F          3.63360       -2.33070       -5.81320
C          3.01150       -1.98680       -3.53650
F          3.73160       -0.85160       -3.57840
Si         0.77850       -1.81650        0.91790
Si        -1.39090       -1.69060       -0.04860
C         -1.52340       -3.06200       -1.39680
C         -1.68160       -2.80850       -2.77930
F         -1.80440       -1.57000       -3.26520
C         -1.81610       -3.85210       -3.70060
F         -1.94640       -3.57370       -5.02210
C         -1.85430       -5.17250       -3.26890
F         -1.99890       -6.17890       -4.16670
C         -1.77780       -5.45450       -1.91040
F         -1.86850       -6.73890       -1.48370
C         -1.63760       -4.41930       -0.98110
F         -1.69560       -4.76340        0.32750
C         -2.83740       -2.37120        0.97730
C         -4.09270       -2.59260        0.36090
F         -4.24290       -2.47980       -0.97870
C         -5.18620       -3.04640        1.10590
F         -6.38870       -3.22460        0.50410
C         -5.03320       -3.35590        2.45600
F         -6.09080       -3.80760        3.17490
C         -3.77280       -3.27220        3.04400
F         -3.59790       -3.67730        4.32650
C         -2.68010       -2.81480        2.30050
F         -1.46040       -2.91860        2.84230
Si        -1.74360        0.62910       -0.55880
C         -3.21880        1.61770        0.19760
C         -3.57150        2.87180       -0.37750
F         -2.95550        3.34700       -1.48620
C         -4.62550        3.63410        0.13400
F         -4.92010        4.83770       -0.41810
C         -5.39630        3.15010        1.18420
F         -6.42520        3.88790        1.67030
C         -5.13840        1.88580        1.70120
F         -5.93760        1.38480        2.67610
C         -4.08040        1.11800        1.20240
F         -3.95360       -0.12250        1.69140
C         -2.48880        0.75550       -2.30380
C         -1.86170        1.45440       -3.34670
F         -0.75490        2.16750       -3.11290
C         -2.42890        1.51320       -4.62400
F         -1.79250        2.18180       -5.61800
C         -3.66570        0.92040       -4.86790
F         -4.21850        0.98300       -6.10480
C         -4.36380        0.32620       -3.81880
F         -5.61030       -0.16540       -4.02930
C         -3.79910        0.27440       -2.54010
F         -4.58100       -0.14540       -1.52070
C          1.16390       -3.63230        1.36280
S          1.11450       -4.05580        3.13390
C          1.54270       -5.80720        2.88650
H          0.55840        6.32460       -1.19800
H         -0.98900        6.28010       -0.24750
H          0.42850        7.21320        0.36810
H         -1.04910        3.80050       -0.50580
H          0.39260        3.86880       -1.46510
H          2.16670       -3.88360        0.96440
H          0.44310       -4.28930        0.87160
H          0.78370       -6.29900        2.24280
H          2.54550       -5.89170        2.41820
H          1.56280       -6.31650        3.87160
