156
mol55-E-1
C         -1.21600        5.94100       -0.88860
S         -1.62920        4.20680       -0.52290
C          0.10740        3.65260       -0.41980
Si         0.38470        1.80570       -0.03550
Si         1.03140        1.79770        2.26710
C          2.52880        2.95490        2.60310
C          3.79520        2.49630        3.03120
F          4.01460        1.21260        3.34090
C          4.84830        3.38570        3.26690
F          6.06080        2.91160        3.64870
C          4.64820        4.75730        3.15760
F          5.66910        5.61620        3.40180
C          3.38370        5.24550        2.84740
F          3.16840        6.58450        2.81440
C          2.32730        4.36300        2.60140
F          1.09610        4.90680        2.45360
C         -0.14100        2.66130        3.50070
C          0.26850        2.86170        4.83830
F          1.55720        2.67750        5.20620
C         -0.60920        3.40280        5.78340
F         -0.20580        3.56300        7.06850
C         -1.88010        3.82420        5.39750
F         -2.72760        4.35770        6.31220
C         -2.24740        3.76500        4.05500
F         -3.44550        4.26260        3.65990
C         -1.37040        3.22090        3.11140
F         -1.70650        3.29340        1.81790
Si         1.09640       -0.48560        2.87680
C         -0.36500       -0.76890        4.05700
C         -0.29630       -1.60230        5.20390
F          0.79470       -2.35360        5.48210
C         -1.37740       -1.68490        6.08860
F         -1.29220       -2.47300        7.18940
C         -2.54170       -0.95890        5.84550
F         -3.58270       -1.03180        6.71180
C         -2.64460       -0.18340        4.69350
F         -3.78690        0.50160        4.44440
C         -1.57560       -0.12030        3.79440
F         -1.72770        0.54060        2.63710
C          2.59100       -0.90900        3.98890
C          2.69170       -0.32940        5.27710
F          1.66260        0.36220        5.81080
C          3.80920       -0.55680        6.08610
F          3.88610        0.01880        7.31190
C          4.82740       -1.40110        5.65230
F          5.90670       -1.62790        6.44180
C          4.70780       -2.05330        4.42820
F          5.66560       -2.93000        4.03580
C          3.59430       -1.82490        3.61270
F          3.49100       -2.55170        2.48980
Si         2.24340        0.97330       -1.23290
C          1.96190        1.19490       -3.08910
C          2.64670        2.16180       -3.86340
F          3.47720        3.07090       -3.30100
C          2.45960        2.22150       -5.24970
F          3.11770        3.15530       -5.98100
C          1.60040        1.32370       -5.88430
F          1.42680        1.38200       -7.22800
C          0.91160        0.37470       -5.13180
F          0.06500       -0.49210       -5.74140
C          1.08470        0.32360       -3.74630
F          0.38060       -0.56830       -3.03060
C          3.91970        1.86510       -0.92860
C          3.97870        3.17400       -0.40660
F          2.86540        3.84480       -0.08880
C          5.19570        3.84930       -0.26600
F          5.21440        5.12380        0.19690
C          6.38670        3.23340       -0.63210
F          7.56580        3.88730       -0.48480
C          6.35990        1.95530       -1.17790
F          7.51850        1.36040       -1.55740
C          5.14340        1.28790       -1.35190
F          5.19470        0.06280       -1.90650
Si         2.38640       -1.32750       -0.75140
C          4.09340       -1.76770       -0.07230
C          4.74530       -0.86610        0.77810
F          4.10420        0.23860        1.18600
C          6.03760       -1.11470        1.24740
F          6.64830       -0.21630        2.05950
C          6.68790       -2.29760        0.90090
F          7.93740       -2.54750        1.36500
C          6.03760       -3.23690        0.09990
F          6.65640       -4.40440       -0.20690
C          4.74700       -2.98390       -0.38070
F          4.14530       -3.95210       -1.10960
C          2.30620       -2.36990       -2.37000
C          1.65870       -3.62270       -2.41640
F          1.13460       -4.17090       -1.31450
C          1.64940       -4.39750       -3.58150
F          1.06170       -5.61950       -3.57890
C          2.28610       -3.94490       -4.73080
F          2.26850       -4.69500       -5.86060
C          2.98250       -2.74290       -4.70080
F          3.64140       -2.31840       -5.80800
C          3.02440       -1.98110       -3.52890
F          3.75760       -0.85400       -3.56440
Si         0.79550       -1.81190        0.92760
Si        -1.37270       -1.65520       -0.03700
C         -1.52170       -3.01680       -1.39330
C         -1.67750       -2.75320       -2.77420
F         -1.78630       -1.51040       -3.25260
C         -1.82450       -3.78950       -3.70180
F         -1.95220       -3.50170       -5.02150
C         -1.87780       -5.11200       -3.27800
F         -2.03440       -6.11120       -4.18170
C         -1.80380       -5.40300       -1.92130
F         -1.90920       -6.68890       -1.50220
C         -1.65130       -4.37520       -0.98580
F         -1.71270       -4.72650        0.32070
C         -2.82650       -2.32530        0.98550
C         -4.08450       -2.52840        0.36860
F         -4.23410       -2.40580       -0.97030
C         -5.18280       -2.97410        1.11130
F         -6.38760       -3.13480        0.50910
C         -5.03280       -3.29350        2.45950
F         -6.09520       -3.73730        3.17620
C         -3.77130       -3.22780        3.04730
F         -3.60050       -3.64270        4.32720
C         -2.67360       -2.77860        2.30590
F         -1.45510       -2.89970        2.84650
Si        -1.69880        0.67140       -0.53300
C         -3.16210        1.67240        0.23020
C         -3.50060        2.93400       -0.33720
F         -2.87970        3.40870       -1.44330
C         -4.54550        3.70530        0.17950
F         -4.82650        4.91550       -0.36520
C         -5.32130        3.22390        1.22720
F         -6.34150        3.97050        1.71830
C         -5.07780        1.95350        1.73630
F         -5.88230        1.45600        2.70870
C         -4.02900        1.17660        1.23240
F         -3.91630       -0.06820        1.71380
C         -2.44330        0.81700       -2.27670
C         -1.80870        1.51480       -3.31570
F         -0.69360        2.21370       -3.07830
C         -2.37570        1.58790       -4.59240
F         -1.73220        2.25520       -5.58270
C         -3.61940        1.01100       -4.83920
F         -4.17210        1.08740       -6.07540
C         -4.32380        0.41860       -3.79330
F         -5.57600       -0.05740       -4.00610
C         -3.75920        0.35250       -2.51520
F         -4.54540       -0.06450       -1.49800
C          1.16010       -3.63480        1.36130
S          1.10680       -4.06840        3.12990
C          1.51460       -5.82300        2.87170
H         -0.62190        6.37500       -0.05760
H         -0.64080        6.00430       -1.83590
H         -2.15520        6.52030       -0.99950
H          0.57370        3.87430       -1.38100
H          0.63910        4.27520        0.30380
H          2.15990       -3.89520        0.96090
H          0.43160       -4.28040        0.86650
H          0.74970       -6.30210        2.22540
H          2.51610       -5.91630        2.40230
H          1.52920       -6.33850        3.85360
