156
mol54-D-0
C         -4.24290        3.71050       -2.86820
S         -2.91470        2.47630       -3.01920
C         -2.59640        2.37850       -1.22730
Si        -1.21750        1.16640       -0.74450
Si        -2.16930       -0.72590        0.20320
C         -3.40970       -1.55960       -0.92020
C         -4.13730       -2.66310       -0.44280
C         -5.10850       -3.27320       -1.24170
C         -5.38610       -2.76700       -2.51280
C         -4.70300       -1.64160       -2.97680
C         -3.73000       -1.03510       -2.17780
C         -3.36910       -0.22220        1.56800
C         -4.59830        0.36240        1.20310
C         -5.53580        0.72600        2.17350
C         -5.27080        0.49300        3.52260
C         -4.07410       -0.11590        3.89820
C         -3.13830       -0.48230        2.92720
Si        -0.46130       -2.18820        0.79640
C         -0.66920       -2.78860        2.55480
C          0.34170       -2.62930        3.50950
C          0.18870       -3.13800        4.80200
C         -0.96990       -3.83640        5.14560
C         -1.96650       -4.04180        4.18970
C         -1.80990       -3.53520        2.89630
C         -0.45750       -3.87620       -0.04420
C          0.32030       -4.90780        0.51870
C          0.33460       -6.18550       -0.04720
C         -0.44320       -6.46020       -1.17140
C         -1.24490       -5.46020       -1.72020
C         -1.26150       -4.18350       -1.15210
Si         0.05710        2.27870        0.81680
C         -0.94280        2.89020        2.28080
C         -0.28520        3.48610        3.37000
C         -1.01020        3.96430        4.46490
C         -2.40320        3.88230        4.46960
C         -3.06970        3.33340        3.37350
C         -2.34320        2.84710        2.28310
C          0.67580        3.89540        0.10660
C         -0.17190        5.01810        0.09750
C          0.27370        6.24050       -0.41410
C          1.57070        6.35730       -0.91720
C          2.41950        5.24950       -0.91340
C          1.97110        4.02710       -0.40700
Si         1.71150        0.87340        1.57340
C          3.40720        1.66700        1.46930
C          3.62690        2.91820        2.07050
C          4.89190        3.51140        2.03880
C          5.95880        2.84950        1.42970
C          5.76050        1.59230        0.85790
C          4.49260        1.00460        0.87920
C          1.45360        0.60520        3.40490
C          2.53270        0.59640        4.30640
C          2.30850        0.41530        5.67510
C          1.00740        0.25370        6.15680
C         -0.06940        0.27020        5.26880
C          0.15990        0.43850        3.90140
Si         1.57030       -1.12630        0.43630
Si         1.85280       -0.69660       -1.80760
C          3.56390       -0.00630       -2.11870
C          4.65830       -0.88470       -2.21780
C          5.94340       -0.39310       -2.46500
C          6.14990        0.97870       -2.62090
C          5.07120        1.85890       -2.52380
C          3.78820        1.36680       -2.27130
C          1.89890       -2.25260       -2.85360
C          1.97010       -3.52580       -2.27300
C          2.03110       -4.67110       -3.07180
C          2.03620       -4.55490       -4.46230
C          2.00210       -3.29140       -5.05320
C          1.95040       -2.14650       -4.25350
Si         0.13510        0.64590       -2.53660
C         -0.82780       -0.29480       -3.83290
C         -1.07730       -1.65620       -3.65290
C         -1.76430       -2.39510       -4.61870
C         -2.22310       -1.76690       -5.77750
C         -1.98490       -0.40410       -5.97070
C         -1.28540        0.32940       -5.00680
C          0.76580        2.15590       -3.45220
C          1.64620        1.99410       -4.53560
C          2.09910        3.10200       -5.25700
C          1.65670        4.38230       -4.92160
C          0.75730        4.55250       -3.86870
C          0.31370        3.44560       -3.13970
C          2.97960       -2.30840        0.90570
S          3.81720       -1.89190        2.46990
C          4.98680       -3.28310        2.38850
H         -5.07000        3.30700       -2.24770
H         -3.84790        4.64120       -2.41040
H         -4.63390        3.94570       -3.87920
H         -3.53290        2.08300       -0.72740
H         -2.32060        3.38560       -0.86320
H         -3.95800       -3.05200        0.54670
H         -5.65150       -4.13300       -0.87140
H         -6.13880       -3.23760       -3.13170
H         -4.92710       -1.23720       -3.95540
H         -3.22650       -0.16570       -2.54940
H         -4.85130        0.52000        0.16460
H         -6.47200        1.18110        1.87740
H         -5.99600        0.77460        4.27480
H         -3.87250       -0.31210        4.94350
H         -2.24970       -0.97030        3.25770
H          1.24410       -2.10650        3.26480
H          0.97010       -2.99070        5.53640
H         -1.08940       -4.22940        6.14680
H         -2.85650       -4.60100        4.44750
H         -2.57790       -3.72920        2.16500
H          0.90310       -4.73890        1.41260
H          0.94320       -6.96490        0.39240
H         -0.43240       -7.44920       -1.61060
H         -1.86150       -5.67490       -2.58350
H         -1.91030       -3.45800       -1.58770
H          0.78820        3.56560        3.38770
H         -0.49110        4.40170        5.30780
H         -2.96580        4.25570        5.31530
H         -4.15090        3.29100        3.36520
H         -2.88120        2.45640        1.44320
H         -1.17790        4.95750        0.48960
H         -0.38660        7.09790       -0.41780
H          1.91570        7.30330       -1.31360
H          3.42390        5.33500       -1.30770
H          2.63880        3.19270       -0.41750
H          2.82100        3.44700        2.55070
H          5.04520        4.48270        2.49080
H          6.93960        3.30630        1.40830
H          6.58980        1.07100        0.39780
H          4.37270        0.03120        0.44130
H          3.54950        0.72000        3.96150
H          3.14440        0.40320        6.36250
H          0.83400        0.11660        7.21610
H         -1.07970        0.14810        5.63670
H         -0.66680        0.46140        3.22080
H          4.52480       -1.95250       -2.11050
H          6.77910       -1.07710       -2.53820
H          7.14470        1.35940       -2.81180
H          5.22830        2.92360       -2.63860
H          2.97870        2.06080       -2.19850
H          1.99550       -3.64250       -1.20860
H          2.08180       -5.64920       -2.61170
H          2.08000       -5.44210       -5.08050
H          2.01940       -3.19760       -6.13130
H          1.93040       -1.18280       -4.73290
H         -0.71620       -2.14000       -2.76830
H         -1.94370       -3.45120       -4.46510
H         -2.76180       -2.33480       -6.52480
H         -2.33970        0.08430       -6.86890
H         -1.11440        1.38210       -5.18250
H          1.99850        1.01610       -4.81680
H          2.79000        2.96660       -6.07890
H          2.00380        5.24040       -5.48230
H          0.40190        5.54300       -3.61640
H         -0.38730        3.60600       -2.34200
H          3.72870       -2.30050        0.09220
H          2.58290       -3.33290        0.99030
H          5.64040       -3.25830        3.28430
H          4.43450       -4.24570        2.37300
H          5.61890       -3.19680        1.48020
