132
mol50-D-2
C          4.52270        0.30280        4.84980
S          3.12730        1.15070        4.04650
C          2.88780       -0.12730        2.76740
Si         1.47660        0.19650        1.52710
Si        -0.63200        0.06650        2.55100
N         -0.62990        0.79800        4.24270
C          0.26910        0.14470        5.19910
C         -1.95790        0.95810        4.85060
N         -1.23790       -1.66710        2.56200
C         -2.35360       -1.90280        3.48640
C         -0.19790       -2.66930        2.81080
Si        -2.03300        1.31950        1.17520
N         -3.78730        0.75940        1.14380
C         -4.64590        1.22720        2.24390
C         -3.99990       -0.66970        0.87000
N         -1.99290        3.13240        1.45670
C         -3.15050        3.85930        0.89670
C         -1.73190        3.55730        2.83320
Si         2.01300        2.32040        0.76510
N          1.86780        3.63540        2.03970
C          1.89160        3.18950        3.43540
C          2.77780        4.77900        1.85930
N          3.77200        2.10880        0.26530
C          4.17810        2.77270       -0.97350
C          4.77010        2.34660        1.31920
Si         0.52380        2.80000       -0.99840
N          1.44690        2.81280       -2.58610
C          2.02800        4.11680       -2.95120
C          0.73970        2.23680       -3.73520
N         -0.43900        4.36030       -0.80130
C          0.13420        5.35720        0.10140
C         -0.87420        5.01160       -2.04700
Si        -1.13520        1.18050       -0.93480
Si        -0.39030       -0.96890       -1.49780
N         -1.63410       -2.15190       -0.84230
C         -2.77990       -2.36790       -1.73430
C         -1.11750       -3.45550       -0.42080
N         -0.22890       -1.15160       -3.32870
C          0.28150       -2.45340       -3.77210
C         -1.41600       -0.79550       -4.12250
Si         1.70290       -1.11190       -0.40820
N          3.04690       -0.29530       -1.36580
C          4.39970       -0.66950       -0.93320
C          2.96110       -0.44280       -2.81990
N          2.13830       -2.86370       -0.01790
C          3.31350       -3.07600        0.84250
C          2.23300       -3.73280       -1.19510
C         -2.42310        1.95950       -2.08860
S         -4.04870        1.14540       -2.06370
C         -4.79710        2.26710       -3.28560
H          5.35940        0.17960        4.13080
H          4.87240        0.91460        5.70620
H          4.19990       -0.69030        5.22570
H          3.83550       -0.22580        2.21930
H          2.71850       -1.09880        3.25970
H          1.31510        0.34990        4.93710
H          0.07810       -0.94230        5.26350
H          0.13980        0.57570        6.21650
H         -1.93700        1.82670        5.54200
H         -2.26530        0.06730        5.43710
H         -2.72450        1.16500        4.09470
H         -2.87280       -2.84360        3.20490
H         -2.00530       -2.00020        4.53640
H         -3.10130       -1.09660        3.42590
H          0.14550       -2.65730        3.86260
H         -0.59830       -3.68460        2.60230
H          0.65840       -2.52150        2.13550
H         -4.63480        0.53410        3.10850
H         -5.69210        1.29720        1.87870
H         -4.36220        2.22580        2.60590
H         -4.67620       -1.16030        1.60390
H         -3.05770       -1.23070        0.87630
H         -4.48710       -0.78350       -0.11490
H         -3.72870        3.25190        0.17340
H         -2.79260        4.76580        0.37080
H         -3.85940        4.20340        1.68080
H         -1.55960        4.65430        2.86140
H         -0.81520        3.08680        3.21080
H         -2.58570        3.33540        3.50150
H          1.27250        2.29490        3.56790
H          2.91990        2.98230        3.79290
H          1.45830        3.98200        4.08190
H          3.71700        4.66670        2.43990
H          2.27670        5.70040        2.22300
H          3.03720        4.93990        0.79700
H          5.27050        2.65110       -1.14470
H          3.95960        3.85540       -0.94030
H          3.70060        2.27720       -1.83240
H          5.62690        1.65760        1.16570
H          5.16500        3.38430        1.28710
H          4.37370        2.14660        2.32650
H          1.38580        4.68500       -3.65650
H          2.22020        4.75000       -2.06410
H          2.99820        3.94970       -3.46370
H          1.47270        1.98760       -4.53150
H         -0.01010        2.92860       -4.16510
H          0.23610        1.30560       -3.45700
H          0.09630        4.98620        1.13610
H         -0.48360        6.28230        0.10860
H          1.15710        5.63580       -0.21280
H         -1.82700        5.55000       -1.85940
H         -1.07750        4.28640       -2.84950
H         -0.13500        5.76010       -2.40240
H         -2.50700       -2.98830       -2.61170
H         -3.58910       -2.89620       -1.18580
H         -3.20340       -1.41160       -2.07190
H         -0.89640       -4.11300       -1.28570
H         -1.87650       -3.96630        0.20970
H         -0.22960       -3.34280        0.20680
H          1.33170       -2.57150       -3.47850
H          0.28430       -2.51580       -4.88300
H         -0.33180       -3.28750       -3.38030
H         -2.01080       -1.68490       -4.42400
H         -2.08650       -0.12220       -3.58610
H         -1.08850       -0.27580       -5.04700
H          4.54130       -0.46380        0.13960
H          5.15490       -0.04720       -1.45980
H          4.62030       -1.73230       -1.15900
H          1.97260       -0.14730       -3.18360
H          3.67760        0.25060       -3.31030
H          3.21480       -1.47080       -3.14390
H          3.68150       -2.14880        1.28440
H          3.03590       -3.77090        1.66160
H          4.17590       -3.52290        0.29860
H          2.48750       -4.77190       -0.89030
H          3.00820       -3.37590       -1.90150
H          1.26060       -3.81120       -1.69190
H         -2.03550        2.01700       -3.12230
H         -2.58800        2.99340       -1.74850
H         -4.77990        3.31040       -2.90690
H         -4.24540        2.20670       -4.24680
H         -5.85040        1.96460       -3.45640
