24
mol56-D-1
C        -14.43860       -6.74700       -0.54380
S        -12.70570       -6.70160       -1.10360
C        -11.98140       -7.29740        0.46300
Ge       -10.04450       -7.40400        0.29810
Ge        -9.48310       -8.99140       -1.40100
Ge        -7.13150       -8.87670       -1.83270
Ge        -9.08850       -8.12600        2.37020
Ge        -6.78150       -8.66090        2.02250
Ge        -6.05560       -7.70010       -0.04550
Ge        -6.72570       -5.40030       -0.09130
Ge        -9.10710       -5.28290       -0.29480
C         -4.11640       -7.88470       -0.17740
S         -3.37670       -6.51690       -1.13530
C         -1.65150       -7.08470       -0.99800
H        -15.09970       -6.47360       -1.39140
H        -14.58970       -6.01720        0.27860
H        -14.70600       -7.76470       -0.19440
H        -12.38360       -8.28640        0.76570
H        -12.22090       -6.56620        1.26180
H         -3.85890       -8.86950       -0.61920
H         -3.69940       -7.84800        0.84960
H         -1.38370       -7.27210        0.06240
H         -0.98210       -6.29680       -1.39950
H         -1.50660       -8.00610       -1.59600
