132
mol50-B-0
C         -1.80480        0.92830        6.25840
S         -0.50350        0.86590        4.98720
C         -1.58620        0.20910        3.68410
Si        -0.79180       -0.10920        1.97480
Si         1.46850       -0.69650        2.05830
N          2.42110        0.84500        2.39100
C          3.62920        1.00400        1.57560
C          2.76540        1.07430        3.80360
N          1.86440       -1.98670        3.30080
C          3.26280       -2.04870        3.74780
C          0.94270       -2.12310        4.42910
Si         1.96830       -1.64540       -0.01670
N          3.71470       -1.18820       -0.37160
C          4.00530       -0.72890       -1.72750
C          4.75520       -2.11240        0.09460
N          1.76650       -3.47380       -0.05110
C          1.93640       -4.15120        1.24050
C          2.56620       -4.16420       -1.07550
Si        -1.08740        1.79720        0.66550
N         -0.43070        3.33990        1.40580
C         -1.07060        4.59520        0.99440
C         -0.22750        3.30190        2.84960
N         -2.89970        1.92780        0.38370
C         -3.62810        2.71040        1.39460
C         -3.29420        2.36770       -0.95930
Si         0.14050        1.48400       -1.27940
N         -0.83180        2.30400       -2.59930
C         -0.93110        1.56390       -3.85220
C         -0.54880        3.72340       -2.84410
N          1.84330        2.17300       -1.19870
C          2.03440        3.25810       -0.22970
C          2.41530        2.56260       -2.49710
Si         0.40660       -0.81560       -1.55700
Si        -1.62840       -1.91580       -1.22660
N         -1.61620       -3.68280       -1.71900
C         -0.62260       -4.08480       -2.71540
C         -2.92560       -4.28590       -2.00280
N         -2.91120       -0.98500       -2.16580
C         -3.21520       -1.51700       -3.50410
C         -4.16830       -0.77700       -1.44040
Si        -2.00270       -1.90690        1.07900
N         -1.35660       -3.40500        1.92940
C         -1.27460       -4.61420        1.10080
C         -2.02130       -3.72750        3.20230
N         -3.82620       -1.78700        1.29230
C         -4.30350       -0.84900        2.30530
C         -4.57490       -3.04740        1.36210
C          1.19960       -1.12440       -3.26870
S          0.06900       -1.42400       -4.65940
C          1.38910       -1.62670       -5.89620
H         -2.62200        1.60640        5.93510
H         -2.20960       -0.08890        6.44100
H         -1.36940        1.31590        7.20190
H         -2.42060        0.91760        3.56720
H         -1.99620       -0.73730        4.06300
H          3.36820        1.03700        0.50800
H          4.11780        1.97760        1.79950
H          4.36320        0.19750        1.77040
H          2.73340        2.16400        4.01240
H          3.78810        0.71520        4.05230
H          2.06550        0.58200        4.49020
H          3.53330       -3.10680        3.94600
H          3.95640       -1.66740        2.98010
H          3.42370       -1.48000        4.68760
H          1.13870       -1.36620        5.21320
H          1.06580       -3.12850        4.88470
H         -0.10000       -2.05380        4.09080
H          3.93420       -1.55660       -2.45990
H          3.33280        0.09770       -1.98810
H          5.03460       -0.31240       -1.77510
H          4.47070       -2.61260        1.03070
H          5.00790       -2.86900       -0.67630
H          5.67960       -1.53670        0.31170
H          1.15890       -3.82940        1.94720
H          1.79620       -5.24800        1.12140
H          2.93850       -3.98400        1.67200
H          2.77570       -3.52510       -1.94810
H          3.53060       -4.53830       -0.67100
H          2.00160       -5.04860       -1.43750
H         -1.88650        4.88720        1.68770
H         -1.45460        4.54130       -0.03670
H         -0.31410        5.40770        1.01280
H          0.48970        2.50240        3.08900
H         -1.18530        3.15550        3.38650
H          0.23470        4.24970        3.20140
H         -4.65860        2.30850        1.48960
H         -3.72380        3.77760        1.10480
H         -3.15880        2.64600        2.39060
H         -2.89220        3.36850       -1.20220
H         -2.97180        1.63000       -1.71100
H         -4.40240        2.41310       -1.03990
H         -1.41200        0.59350       -3.65740
H         -1.59150        2.10000       -4.56790
H          0.06390        1.43160       -4.32090
H          0.21000        3.85950       -3.64240
H         -0.22680        4.24160       -1.92700
H         -1.48030        4.22240       -3.18420
H          1.85960        2.88950        0.79330
H          1.38290        4.12510       -0.44500
H          3.08970        3.60810       -0.24620
H          2.03790        1.93810       -3.32410
H          3.51700        2.43090       -2.46140
H          2.22590        3.63100       -2.73120
H          0.34790       -3.61300       -2.50980
H         -0.95190       -3.84280       -3.74450
H         -0.46480       -5.18250       -2.65500
H         -3.73750       -3.78210       -1.45220
H         -2.91300       -5.34800       -1.68090
H         -3.16510       -4.26710       -3.08680
H         -2.37480       -2.07720       -3.93250
H         -3.44150       -0.67220       -4.18750
H         -4.10000       -2.19070       -3.49930
H         -4.86820       -0.16720       -2.05260
H         -3.98900       -0.19830       -0.52270
H         -4.66640       -1.73730       -1.20170
H         -0.87450       -5.46330        1.69710
H         -0.55960       -4.46800        0.27920
H         -2.25860       -4.91590        0.70220
H         -2.43530       -2.83560        3.69930
H         -2.83640       -4.47050        3.07180
H         -1.27830       -4.17910        3.89220
H         -5.40470       -0.72610        2.22070
H         -4.07410       -1.20600        3.32850
H         -3.87370        0.14310        2.11970
H         -4.67880       -3.40610        2.40670
H         -4.11890       -3.83070        0.74100
H         -5.59820       -2.88290        0.96330
H          1.85350       -2.00470       -3.19950
H          1.82370       -0.25860       -3.53810
H          2.04370       -2.47940       -5.62010
H          0.92930       -1.83280       -6.88430
H          1.99140       -0.69720       -5.96740
