72
mol57-E-1
C          6.84960       -9.22240        7.05700
S          5.67380       -7.97470        7.66520
C          6.39510       -6.57250        6.74820
Ge         5.42810       -4.90930        7.08860
Ge         3.45050       -5.48890        8.30410
C          3.91920       -6.02550       10.11030
C          2.55740       -6.98210        7.43920
Ge         1.97510       -3.61130        8.38260
C          1.27240       -3.41100       10.18300
C          0.48150       -3.90500        7.17730
Ge         6.64730       -3.28350        8.37200
C          8.07360       -2.48790        7.32070
C          7.41610       -4.08540        9.96750
Ge         5.16440       -1.53660        9.05020
C          6.06870        0.17090        8.85260
C          4.73420       -1.76170       10.93010
Ge         3.15700       -1.63080        7.74590
Ge         3.72160       -1.81110        5.41660
C          4.98220       -0.42950        4.89270
C          2.13650       -1.67050        4.29970
Ge         4.73960       -3.93480        5.01100
C          6.23870       -3.69480        3.79960
C          3.45530       -5.09890        4.13630
C          2.00880       -0.11430        8.19250
S          1.81500        1.02630        6.78250
C          0.72680        2.20430        7.64120
H          7.87880       -8.94640        7.35370
H          6.60000      -10.20410        7.50840
H          6.78390       -9.30760        5.95250
H          6.31380       -6.79680        5.66530
H          7.47030       -6.43580        6.98630
H          3.02180       -6.43810       10.61480
H          4.71340       -6.79890       10.07060
H          4.28300       -5.14660       10.67570
H          1.67520       -7.27990        8.04190
H          2.22450       -6.68440        6.42620
H          3.25960       -7.83710        7.36210
H          0.67800       -4.30980       10.44600
H          0.62480       -2.51180       10.22810
H          2.10750       -3.30190       10.90170
H         -0.12190       -2.97710        7.10510
H         -0.14840       -4.73010        7.56820
H          0.86220       -4.18080        6.17560
H          8.53920       -1.66580        7.90140
H          7.65590       -2.07980        6.37970
H          8.84260       -3.25240        7.09390
H          6.63220       -4.63410       10.52500
H          7.83350       -3.28520       10.61220
H          8.22690       -4.78510        9.68360
H          5.41310        0.98130        9.23100
H          6.31090        0.34630        7.78610
H          7.00790        0.15540        9.44240
H          5.62800       -1.52330       11.54180
H          3.90300       -1.07970       11.20280
H          4.43500       -2.81010       11.11820
H          5.30780       -0.61060        3.84820
H          5.86460       -0.46110        5.56130
H          4.49580        0.56380        4.95400
H          1.73600       -0.63840        4.34310
H          1.36540       -2.38200        4.65390
H          2.40700       -1.91350        3.25180
H          6.67350       -4.68400        3.55060
H          7.00590       -3.05220        4.27440
H          5.88030       -3.20870        2.86930
H          3.28970       -4.74720        3.09760
H          2.49560       -5.07050        4.68620
H          3.84810       -6.13610        4.12060
H          1.00570       -0.51180        8.44840
H          2.40650        0.40500        9.08900
H          1.24860        2.62760        8.51980
H          0.46990        3.03040        6.94720
H         -0.20860        1.70100        7.96250
