48
mol53-A-1
C          5.80800        3.05090       -3.26530
S          4.48610        1.80080       -3.23640
C          3.65540        2.50420       -1.77640
Si         2.14550        1.49290       -1.34010
Si         0.82950        1.35730       -3.13720
C          0.62750        3.00580       -3.86750
N          0.49840        4.05790       -4.33100
C          1.59830        0.24270       -4.34530
N          2.08880       -0.47000       -5.11320
Si        -1.16640        0.55180       -2.53540
C         -1.77740       -0.56120       -3.83180
N         -2.16500       -1.27160       -4.65860
C         -2.33460        1.92060       -2.30340
N         -3.07800        2.79410       -2.15300
Si         0.96290        2.43180        0.30580
C          2.04150        2.87160        1.69710
N          2.72920        3.15000        2.58480
C          0.14510        3.92170       -0.32950
N         -0.37740        4.87000       -0.73680
Si        -0.57420        0.96570        1.00070
C         -2.12160        1.83540        1.37590
N         -3.10880        2.39010        1.61270
C          0.02410        0.11260        2.48630
N          0.40770       -0.43270        3.43160
Si        -0.93570       -0.54380       -0.60260
Si         0.86510       -1.85840       -0.74490
C          0.80110       -2.79250       -2.29940
N          0.75940       -3.38550       -3.29180
C          0.89280       -3.00480        0.66090
N          0.90940       -3.73400        1.55890
Si         2.69870       -0.58090       -0.72000
C          3.38280       -0.53920        0.96030
N          3.81670       -0.51070        2.03240
C          3.93230       -1.24990       -1.86980
N          4.71790       -1.67520       -2.60490
C         -2.46770       -1.52330       -0.17070
S         -2.71670       -2.86830       -1.37290
C         -4.22980       -3.49250       -0.57800
H          5.37310        4.06290       -3.40170
H          6.49050        2.83610       -4.11280
H          6.38750        3.01520       -2.31930
H          4.34610        2.50320       -0.90780
H          3.33210        3.54370       -1.99230
H         -2.33870       -1.94750        0.84670
H         -3.34070       -0.83820       -0.17930
H         -4.01020       -3.81270        0.46180
H         -5.01050       -2.70360       -0.57150
H         -4.60580       -4.36500       -1.15060
