108
mol58-D-1
C          5.50880        1.04890        4.10290
S          3.97630        0.22170        3.57520
C          3.98470        0.94590        1.90820
Ge         2.45480        0.35410        0.83890
Ge         0.82450       -0.64850        2.28370
C         -0.15160        0.75300        3.23200
C          0.79750        1.69520        3.95670
C          1.72150       -1.79340        3.58890
C          0.87030       -1.98240        4.83940
Ge        -0.73030       -1.93080        0.96840
C         -2.50710       -1.56330        1.69830
C         -3.59420       -2.32760        0.95900
C         -0.34750       -3.85210        1.06220
C         -0.73300       -4.46530        2.40040
Ge         3.29020       -1.32820       -0.64860
C          3.76790       -2.91650        0.38270
C          4.82400       -2.60330        1.43260
C          4.89900       -0.65600       -1.52920
C          5.67540       -1.78530       -2.19530
Ge         1.57330       -1.92840       -2.22510
C          1.73200       -1.06280       -3.97470
C          3.04520       -1.37200       -4.67830
C          1.60480       -3.87300       -2.42290
C          0.94620       -4.32490       -3.72030
Ge        -0.54800       -1.23430       -1.33660
Ge        -0.62800        1.17230       -1.43980
C         -2.11750        1.86960       -0.38190
C         -3.46530        1.43190       -0.92970
C         -0.76280        1.90890       -3.24900
C         -1.55960        1.01550       -4.18580
Ge         1.39360        2.05440       -0.49440
C          0.88710        3.63060        0.54580
C          0.47880        4.77670       -0.36950
C          2.58960        2.56430       -1.95130
C          3.90780        3.10380       -1.41970
C         -1.96020       -1.97840       -2.46520
S         -2.28500       -3.71870       -2.04570
C         -3.59020       -3.92900       -3.29560
H          6.35270        0.74050        3.45110
H          5.73660        0.75540        5.14790
H          5.38250        2.15070        4.05860
H          4.91720        0.65290        1.38640
H          3.95280        2.05050        1.99070
H         -0.84250        0.28120        3.96120
H         -0.75120        1.33300        2.50710
H          1.39280        2.26960        3.22110
H          0.21240        2.41220        4.56970
H          1.48360        1.13160        4.62180
H          1.93110       -2.77580        3.11940
H          2.68640       -1.33130        3.87870
H         -0.17330       -2.24970        4.57360
H          0.85490       -1.04920        5.43880
H          1.30240       -2.79190        5.46410
H         -2.71210       -0.47690        1.63520
H         -2.51390       -1.85380        2.76960
H         -4.56980       -2.16120        1.46150
H         -3.67450       -1.96530       -0.08390
H         -3.37700       -3.41570        0.95710
H          0.72880       -4.02110        0.87590
H         -0.91530       -4.36940        0.26700
H         -0.61430       -5.56790        2.34590
H         -1.78910       -4.23970        2.65130
H         -0.07170       -4.09280        3.20200
H          2.86320       -3.30560        0.88370
H          4.15090       -3.69380       -0.31070
H          5.72930       -2.16800        0.96230
H          4.42250       -1.89120        2.17970
H          5.11080       -3.53780        1.95860
H          4.61240        0.10760       -2.27760
H          5.54870       -0.16760       -0.77490
H          5.00940       -2.40060       -2.83290
H          6.13600       -2.44080       -1.42810
H          6.48430       -1.35910       -2.82490
H          1.62520        0.03240       -3.85220
H          0.89430       -1.42460       -4.60600
H          3.29170       -2.45070       -4.61220
H          3.86570       -0.77520       -4.24020
H          2.96230       -1.09380       -5.74990
H          2.65980       -4.21760       -2.40920
H          1.07360       -4.32470       -1.56090
H         -0.05860       -3.87410       -3.83100
H          0.84300       -5.43030       -3.71750
H          1.56510       -4.03540       -4.59290
H         -2.01420        1.51610        0.65850
H         -2.07170        2.97730       -0.37920
H         -3.53670        0.32780       -0.93680
H         -3.61330        1.82970       -1.95410
H         -4.27320        1.82940       -0.28030
H          0.25550        2.05040       -3.66360
H         -1.25080        2.90370       -3.18220
H         -2.53740        0.74280       -3.74130
H         -0.98340        0.09870       -4.41170
H         -1.74150        1.55140       -5.14070
H          1.73410        3.96250        1.17360
H          0.03900        3.36350        1.20900
H          1.35400        5.13120       -0.95280
H          0.09720        5.62140        0.24150
H         -0.31800        4.45520       -1.07110
H          2.78270        1.67600       -2.58440
H          2.09510        3.34030       -2.57130
H          3.72940        3.98720       -0.77160
H          4.43780        2.31970       -0.84120
H          4.55240        3.41010       -2.26990
H         -2.88540       -1.38500       -2.33790
H         -1.63630       -1.91930       -3.52260
H         -3.97710       -4.96710       -3.24280
H         -4.42450       -3.22400       -3.09790
H         -3.17850       -3.75000       -4.31060
