132
mol50-D-1
C          5.30540       -0.46860        3.78390
S          4.50320       -0.20650        2.17160
C          2.82060       -0.05990        2.86020
Si         1.43010        0.24320        1.59170
Si        -0.69610        0.10250        2.57710
N         -0.73170        0.84560        4.26320
C          0.15480        0.20660        5.24080
C         -2.07210        0.99870        4.84530
N         -1.28750       -1.63610        2.58910
C         -2.41820       -1.87500        3.49420
C         -0.24400       -2.62780        2.86420
Si        -2.08150        1.33390        1.16660
N         -3.83030        0.75870        1.10660
C         -4.71310        1.22680        2.18720
C         -4.02570       -0.67400        0.83900
N         -2.06200        3.14900        1.43600
C         -3.21500        3.86210        0.84940
C         -1.83020        3.58570        2.81410
Si         1.96290        2.36640        0.82480
N          1.78290        3.68880        2.08710
C          1.78440        3.25290        3.48610
C          2.68650        4.83880        1.91550
N          3.73260        2.16620        0.35920
C          4.15620        2.82490       -0.87650
C          4.70890        2.41980        1.42980
Si         0.50280        2.82100       -0.96950
N          1.45520        2.83070       -2.53980
C          2.03210        4.13700       -2.90330
C          0.77440        2.24080       -3.69780
N         -0.47650        4.37440       -0.80140
C          0.07140        5.38240        0.10480
C         -0.89380        5.01340       -2.05950
Si        -1.14350        1.18800       -0.92520
Si        -0.37030       -0.95890       -1.45910
N         -1.61610       -2.14780       -0.81850
C         -2.74320       -2.37980       -1.73000
C         -1.09650       -3.44410       -0.37820
N         -0.17320       -1.15280       -3.28540
C          0.35630       -2.45330       -3.71000
C         -1.34820       -0.81240       -4.10360
Si         1.70340       -1.07650       -0.32980
N          3.05810       -0.25520       -1.26800
C          4.40570       -0.61490       -0.80770
C          3.00080       -0.41340       -2.72240
N          2.14610       -2.82190        0.08090
C          3.30680       -3.01820        0.96440
C          2.27010       -3.69820       -1.08810
C         -2.41610        1.94790       -2.10830
S         -4.03500        1.12030       -2.10790
C         -4.76980        2.22710       -3.35140
H          4.90220       -1.38330        4.26650
H          6.39610       -0.59600        3.62810
H          5.13640        0.40970        4.44100
H          2.60980       -0.98600        3.41350
H          2.80920        0.75030        3.60730
H          1.20380        0.41890        4.99690
H         -0.02830       -0.88150        5.30940
H          0.00300        0.64350        6.25260
H         -2.07130        1.87210        5.53080
H         -2.38290        0.10940        5.43230
H         -2.82610        1.19380        4.07380
H         -2.92420       -2.82210        3.20970
H         -2.08880       -1.96210        4.55120
H         -3.17140       -1.07550        3.41420
H          0.07960       -2.60550        3.92220
H         -0.63190       -3.64780        2.65550
H          0.62350       -2.47730        2.20390
H         -4.71240        0.53990        3.05670
H         -5.75280        1.28540        1.80220
H         -4.44450        2.23030        2.54740
H         -4.71150       -1.16520        1.56370
H         -3.07920       -1.22690        0.86680
H         -4.49350       -0.79880       -0.15400
H         -3.77450        3.24480        0.11990
H         -2.85490        4.76800        0.32390
H         -3.94120        4.20560        1.61780
H         -1.66770        4.68420        2.83770
H         -0.91680        3.12550        3.21200
H         -2.69440        3.36110        3.46790
H          1.17040        2.35390        3.61340
H          2.80750        3.05680        3.86410
H          1.33250        4.04610        4.11880
H          3.61560        4.73850        2.51430
H          2.17100        5.75850        2.26330
H          2.96430        4.99460        0.85720
H          5.25250        2.71150       -1.02650
H          3.92790        3.90600       -0.85500
H          3.69890        2.31950       -1.74060
H          5.57410        1.73700        1.29710
H          5.09550        3.46060        1.39770
H          4.29540        2.22340        2.43090
H          1.39840        4.69480       -3.62430
H          2.20240        4.77800       -2.01720
H          3.01300        3.97460       -3.39640
H          1.52420        1.99230       -4.47850
H          0.02700        2.92320       -4.14640
H          0.27360        1.30730       -3.42240
H          0.01730        5.01820        1.14120
H         -0.55420        6.30220        0.09390
H          1.09760        5.66750       -0.19230
H         -1.85440        5.54490       -1.89350
H         -1.07610        4.28100       -2.86050
H         -0.15440        5.76570       -2.40640
H         -2.44880       -3.00390       -2.59780
H         -3.55810       -2.91110       -1.19300
H         -3.16840       -1.42950       -2.08230
H         -0.85380       -4.10560       -1.23420
H         -1.86280       -3.95690        0.24170
H         -0.22140       -3.31950        0.26500
H          1.40180       -2.56050       -3.39610
H          0.38030       -2.52340       -4.82010
H         -0.25720       -3.28990       -3.32380
H         -1.92990       -1.70890       -4.40980
H         -2.03420       -0.14110       -3.58450
H         -1.00780       -0.29630       -5.02550
H          4.52560       -0.40050        0.26610
H          5.16540        0.01020       -1.32460
H          4.63940       -1.67720       -1.02180
H          2.01680       -0.12890       -3.10650
H          3.72050        0.28260       -3.20430
H          3.26900       -1.44150       -3.03430
H          3.65870       -2.08480        1.40650
H          3.01980       -3.70970        1.78320
H          4.18290       -3.46150        0.43990
H          2.52750       -4.73290       -0.77140
H          3.05530       -3.33970       -1.78250
H          1.30780       -3.78830       -1.60240
H         -2.00980        2.00160       -3.13500
H         -2.59600        2.98280       -1.77860
H         -4.76850        3.27310       -2.97980
H         -4.19990        2.16480       -4.30170
H         -5.81720        1.91450       -3.53960
