156
mol55-A-1
C          3.15670       -5.18610       -1.77230
S          2.93850       -3.76660       -0.65490
C          1.49400       -3.08980       -1.54640
Si         0.73310       -1.48800       -0.83230
Si         2.20310       -0.62700        0.86570
C          2.64970       -2.01470        2.13890
C          3.54240       -3.05100        1.73680
F          4.06550       -3.10080        0.49050
C          3.97900       -4.02810        2.63610
F          4.82160       -5.00520        2.21690
C          3.57540       -3.99070        3.96440
F          4.00690       -4.93690        4.83510
C          2.74470       -2.96710        4.40130
F          2.38440       -2.90730        5.70820
C          2.30820       -1.97890        3.51310
F          1.62720       -0.96550        4.05400
C          4.02250       -0.37250        0.36720
C          4.98830       -0.09190        1.36420
F          4.66850       -0.13400        2.67670
C          6.32770        0.12740        1.02550
F          7.23130        0.42250        1.99310
C          6.74410        0.00340       -0.29800
F          8.04490        0.20510       -0.62420
C          5.83290       -0.39660       -1.27260
F          6.25490       -0.61190       -2.54380
C          4.49230       -0.61130       -0.93620
F          3.68670       -1.13780       -1.86790
Si         1.24330        1.45440        1.60290
C          2.22270        3.11370        1.41970
C          3.44770        3.24610        0.72070
F          4.03660        2.21520        0.10950
C          4.15560        4.45220        0.70710
F          5.31790        4.54530        0.01350
C          3.69730        5.54670        1.42880
F          4.39720        6.70860        1.42300
C          2.52990        5.43880        2.17330
F          2.10210        6.49480        2.90960
C          1.80900        4.24120        2.18790
F          0.74410        4.18780        3.02010
C          1.25890        1.54940        3.50400
C          0.08320        1.65390        4.26780
F         -1.10820        1.80000        3.67320
C          0.13020        1.70330        5.66490
F         -1.02070        1.77970        6.37890
C          1.35710        1.71050        6.32440
F          1.40130        1.76500        7.67890
C          2.53720        1.73180        5.58470
F          3.73090        1.83630        6.22030
C          2.49160        1.68740        4.18740
F          3.64490        1.88820        3.51200
Si         0.21540       -0.00220       -2.62110
C          1.83880        0.38510       -3.51160
C          2.14480       -0.06200       -4.82020
F          1.32910       -0.90060       -5.50140
C          3.33640        0.33080       -5.44190
F          3.62170       -0.10660       -6.69380
C          4.23320        1.17050       -4.78060
F          5.38280        1.55330       -5.38960
C          3.94970        1.60530       -3.48760
F          4.82180        2.41480       -2.83670
C          2.76860        1.20150       -2.85960
F          2.52050        1.60270       -1.60210
C         -0.90110       -0.70180       -4.01360
C         -1.16210       -2.08240       -4.14620
F         -0.70280       -2.97120       -3.25360
C         -1.90220       -2.58280       -5.22290
F         -2.13620       -3.91540       -5.32210
C         -2.39060       -1.72220       -6.19990
F         -3.11380       -2.21040       -7.23830
C         -2.11810       -0.36100       -6.11670
F         -2.57740        0.47860       -7.07820
C         -1.36420        0.14300       -5.05250
F         -1.12330        1.46750       -5.04050
Si        -0.59290        2.04290       -1.75710
C          0.62380        3.46840       -2.18390
C          0.91920        4.49120       -1.25870
F          0.27990        4.55600       -0.08140
C          1.74910        5.56490       -1.60120
F          1.95140        6.57460       -0.71970
C          2.31240        5.64000       -2.87000
F          3.12350        6.67720       -3.19530
C          1.98810        4.68130       -3.82260
F          2.49060        4.78190       -5.07860
C          1.12140        3.63290       -3.49970
F          0.79310        2.78330       -4.48980
C         -2.18860        2.74170       -2.54610
C         -3.15690        1.89340       -3.10750
F         -3.07040        0.57060       -2.94340
C         -4.27540        2.39890       -3.77580
F         -5.18300        1.54800       -4.31630
C         -4.47860        3.77270       -3.85630
F         -5.57190        4.26350       -4.49130
C         -3.57510        4.63920       -3.24720
F         -3.79650        5.97710       -3.28440
C         -2.44680        4.13640       -2.58910
F         -1.64770        5.03240       -1.97050
Si        -0.90510        1.62640        0.53520
Si        -2.36470       -0.23600        0.81250
C         -2.73360       -0.38440        2.66180
C         -4.00160       -0.12050        3.23520
F         -5.03230        0.36660        2.50510
C         -4.21670       -0.32740        4.60330
F         -5.43360       -0.06740        5.14300
C         -3.18550       -0.79980        5.41570
F         -3.40080       -1.00470        6.73880
C         -1.92990       -1.04960        4.86570
F         -0.92140       -1.50080        5.65240
C         -1.70890       -0.82860        3.50390
F         -0.48640       -1.04400        2.99110
C         -4.10420       -0.08010        0.02190
C         -4.61480        1.15350       -0.43530
F         -3.87400        2.27090       -0.41050
C         -5.92130        1.26430       -0.92320
F         -6.38300        2.46440       -1.35560
C         -6.75530        0.15180       -0.95690
F         -8.01880        0.26160       -1.43730
C         -6.29310       -1.06950       -0.47840
F         -7.11030       -2.15200       -0.49280
C         -4.99420       -1.18260        0.02650
F         -4.61520       -2.38890        0.48840
Si        -1.25820       -2.22420        0.17640
C         -2.21200       -3.40850       -0.98340
C         -3.16770       -2.92670       -1.89270
F         -3.30360       -1.61330       -2.09450
C         -3.94110       -3.79250       -2.67050
F         -4.86350       -3.29020       -3.52900
C         -3.74170       -5.16700       -2.59300
F         -4.48120       -6.00700       -3.35920
C         -2.75190       -5.67300       -1.75490
F         -2.52430       -7.00960       -1.71300
C         -1.98520       -4.80920       -0.96430
F         -1.00390       -5.36610       -0.22210
C         -1.04090       -3.37660        1.69930
C          0.14140       -4.11800        1.90370
F          1.11760       -4.11870        0.98390
C          0.26490       -5.01010        2.97490
F          1.38110       -5.76860        3.10130
C         -0.78240       -5.17740        3.87380
F         -0.65570       -6.03600        4.91600
C         -1.98240       -4.50900        3.66130
F         -3.02590       -4.71250        4.50380
C         -2.12710       -3.65310        2.56520
F         -3.33760       -3.09670        2.37900
C         -1.77720        3.20710        1.16430
S         -3.22470        2.95440        2.25070
C         -3.55930        4.72880        2.47510
H          4.01470       -5.79430       -1.42010
H          2.24370       -5.81720       -1.77060
H          3.36720       -4.83100       -2.80260
H          1.78970       -2.89900       -2.59520
H          0.73310       -3.87480       -1.56300
H         -2.09820        3.80140        0.28830
H         -1.06150        3.81610        1.72320
H         -3.78590        5.20050        1.49610
H         -4.43650        4.84920        3.14290
H         -2.68280        5.22710        2.93910
