48
mol51-A-2
C         -5.67860        2.09270       -0.86570
S         -4.47440        0.74470       -0.65520
C         -3.02040        1.83980       -0.72030
Si        -1.45530        0.83710       -0.53450
Si         0.34680        2.15720       -0.52870
O          0.41720        3.01390        0.95670
O          0.25460        3.26710       -1.83430
Si         2.17700        0.88830       -0.75300
O          3.40480        1.45970        0.30110
O          2.74040        0.96640       -2.37220
Si        -1.28180       -0.57290       -2.25630
O         -2.77440       -1.39130       -2.47520
O         -0.89560        0.31830       -3.67130
Si         0.33670       -2.05950       -1.82760
O          1.23870       -2.37260       -3.25380
O         -0.36410       -3.52360       -1.26980
Si         1.67530       -1.22880       -0.24070
Si         0.55440       -1.23140        1.69390
O          1.40280       -0.28530        2.84710
O          0.39390       -2.83930        2.27170
Si        -1.47780       -0.35520        1.35660
O         -1.89650        0.65000        2.68310
O         -2.63210       -1.61580        1.20530
C          3.25400       -2.21780       -0.10840
S          2.86870       -3.96080        0.25380
C          4.61000       -4.48820        0.28770
H         -6.70270        1.66680       -0.86210
H         -5.58840        2.81860       -0.03090
H         -5.50760        2.60920       -1.83310
H         -3.06680        2.57930        0.10590
H         -2.98830        2.37170       -1.69380
H          1.21000        3.60060        0.87070
H         -0.56460        3.79440       -1.65740
H          3.01180        1.39120        1.20720
H          1.92360        0.90210       -2.92820
H         -2.60830       -2.02240       -3.22000
H         -0.80530       -0.36460       -4.38260
H          1.64650       -1.50320       -3.49260
H         -0.91160       -3.26070       -0.48800
H          2.29350       -0.71270        2.91470
H         -0.07220       -2.74800        3.14050
H         -1.18810        1.34140        2.70860
H         -2.59750       -2.09350        2.07180
H          3.79980       -2.14360       -1.07180
H          3.87470       -1.78840        0.70520
H          5.08620       -4.29570       -0.69620
H          5.15830       -3.94290        1.08380
H          4.65450       -5.57570        0.50140
