84
mol52-B-2
C          3.96960       -3.46040       -3.86810
S          3.60570       -2.44270       -2.40450
C          1.83370       -2.26490       -2.78890
Si         0.97240       -1.22820       -1.48180
Si        -1.11270       -0.70680       -2.11480
O         -2.05150       -2.14430       -1.82200
C         -3.42490       -1.85680       -1.78920
O         -1.13910       -0.23900       -3.78760
C         -1.32530       -1.36470       -4.60840
Si        -1.69290        1.10330       -0.89370
O         -3.41540        1.16790       -0.68530
C         -4.03220        1.56310       -1.88900
O         -1.13900        2.51360       -1.74460
C         -1.41320        3.67230       -0.99400
Si         0.81110       -2.33970        0.47680
O          2.34680       -2.39640        1.28610
C          3.28200       -3.09630        0.50450
O          0.22590       -3.94020        0.14370
C          0.15990       -4.68410        1.33380
Si        -0.70170       -1.22360        1.74490
O         -2.26280       -1.84450        1.31000
C         -2.98320       -2.19530        2.46360
O         -0.49210       -1.26920        3.47600
C          0.74540       -1.82770        3.82540
Si        -0.65190        0.91600        1.10180
Si         1.49500        1.53880        0.82720
O          2.51530        0.93200        2.09310
C          2.18410        1.54930        3.31190
O          1.50840        3.27670        0.80090
C          2.79890        3.75900        0.53560
Si         2.18360        0.63010       -1.12160
O          3.83520        0.09440       -1.05370
C          4.70050        1.18430       -0.87670
O          1.96040        1.81410       -2.37210
C          2.27500        1.25920       -3.62390
C         -1.48080        2.00250        2.38450
S         -3.25950        1.62460        2.47870
C         -3.60080        2.85490        3.77520
H          5.04940       -3.71350       -3.87340
H          3.38050       -4.40060       -3.83460
H          3.72770       -2.89780       -4.79380
H          1.35840       -3.26450       -2.82950
H          1.71340       -1.78050       -3.77780
H         -3.76610       -1.31410       -2.69560
H         -3.69240       -1.31000       -0.86350
H         -3.97870       -2.81720       -1.76360
H         -1.21170       -1.04750       -5.66490
H         -0.56560       -2.15070       -4.42290
H         -2.34950       -1.77780       -4.50000
H         -3.91550        2.65280       -2.05860
H         -3.66080        1.00330       -2.77510
H         -5.11900        1.35840       -1.80680
H         -0.73630        3.75020       -0.12410
H         -2.46940        3.73280       -0.65320
H         -1.22420        4.55660       -1.63570
H          3.61750       -2.47670       -0.34970
H          2.90290       -4.08260        0.15500
H          4.17600       -3.29640        1.12930
H          1.15160       -4.76220        1.83110
H         -0.15930       -5.71580        1.08200
H         -0.60120       -4.26880        2.02730
H         -3.97920       -2.57110        2.15250
H         -2.47990       -3.01510        3.02190
H         -3.15370       -1.31470        3.12120
H          1.58880       -1.24200        3.40690
H          0.84410       -1.79190        4.92930
H          0.80310       -2.89510        3.52850
H          2.91390        1.21820        4.07840
H          2.24980        2.65810        3.25760
H          1.18200        1.22900        3.66100
H          2.78410        4.86300        0.63820
H          3.09670        3.53780       -0.50970
H          3.54570        3.37790        1.26580
H          4.55350        1.96980       -1.65060
H          4.60670        1.59470        0.14890
H          5.74260        0.82020       -0.98280
H          3.26980        0.75920       -3.63410
H          2.31790        2.08090       -4.36740
H          1.47580        0.56530       -3.95460
H         -1.01680        1.81830        3.37320
H         -1.33590        3.06560        2.10610
H         -4.68010        2.82330        4.02860
H         -3.34670        3.87240        3.41170
H         -3.01090        2.62280        4.68630
