132
mol50-C-0
C         -6.47040       -0.12390        0.54530
S         -4.88470       -0.74940       -0.09300
C         -3.90100        0.64400        0.53290
Si        -2.02140        0.61340        0.18410
Si        -1.08200       -1.53290        0.06490
N         -1.60970       -2.64640        1.42600
C         -1.52690       -4.08960        1.16210
C         -2.85430       -2.30670        2.11660
N         -1.56420       -2.24180       -1.56700
C         -0.49610       -2.96530       -2.26390
C         -2.77490       -3.07980       -1.55170
Si         1.24160       -1.26520        0.30750
N          2.01430       -2.52100       -0.78640
C          2.21880       -3.85690       -0.20930
C          3.18010       -2.09750       -1.56300
N          1.81980       -1.48480        2.04410
C          0.90440       -2.23740        2.90740
C          3.17480       -2.04300        2.18630
Si        -1.08440        1.76580        1.99260
N         -1.94180        3.32160        2.46160
C         -1.77750        3.76650        3.85050
C         -3.33280        3.45550        2.03590
N         -1.09100        0.57380        3.39290
C          0.08570        0.62950        4.26850
C         -2.31440        0.58200        4.20940
Si         1.05060        2.42260        1.36380
N          2.06100        2.35660        2.89300
C          2.14390        3.58560        3.69140
C          3.37740        1.74790        2.73680
N          1.11420        4.09660        0.60610
C          2.40700        4.78540        0.74490
C          0.02930        5.00190        1.00320
Si         1.73030        0.94650       -0.30290
Si         0.62120        1.45830       -2.29920
N          0.90050        0.01360       -3.40200
C          2.11530        0.08890       -4.22790
C         -0.24290       -0.36390       -4.24150
N          1.15690        3.01290       -3.11890
C          2.48220        3.51550       -2.76490
C          0.93760        3.09820       -4.56750
Si        -1.61630        1.79220       -1.78190
N         -2.03410        3.54370       -1.41060
C         -1.14580        4.53930       -2.02200
C         -3.43600        3.90900       -1.66830
N         -2.55750        1.18800       -3.23560
C         -3.72670        0.37550       -2.91910
C         -2.86870        2.16810       -4.28320
C          3.57240        1.27870       -0.69270
S          4.80280        0.28570        0.20220
C          6.24370        1.06240       -0.59410
H         -7.27450       -0.83960        0.27850
H         -6.70250        0.86210        0.09130
H         -6.42680       -0.02870        1.65030
H         -4.33120        1.55970        0.10030
H         -4.05480        0.67730        1.62100
H         -2.49090       -4.50070        0.79660
H         -0.73590       -4.32780        0.43240
H         -1.27710       -4.61750        2.10610
H         -3.74230       -2.65510        1.55470
H         -2.86640       -2.79520        3.11390
H         -2.91900       -1.22450        2.29410
H         -0.85780       -3.32490       -3.25220
H          0.34420       -2.29230       -2.48240
H         -0.15260       -3.84300       -1.68420
H         -2.53760       -4.16500       -1.49400
H         -3.34440       -2.91250       -2.48950
H         -3.43650       -2.84490       -0.70890
H          1.47560       -4.08330        0.57270
H          2.10250       -4.61900       -1.00790
H          3.23730       -3.97370        0.21590
H          4.10710       -2.12680       -0.95840
H          3.02890       -1.09090       -1.97590
H          3.31340       -2.78090       -2.42820
H          0.75860       -3.27220        2.54330
H          1.30860       -2.28970        3.94220
H         -0.05920       -1.71690        2.99140
H          3.16320       -3.13930        2.37460
H          3.67730       -1.56170        3.05090
H          3.79440       -1.87090        1.29760
H         -0.79280        3.48870        4.25540
H         -2.58020        3.37170        4.50620
H         -1.83490        4.87490        3.88450
H         -3.99120        2.73800        2.56280
H         -3.39550        3.33430        0.94760
H         -3.69970        4.48260        2.24970
H          0.99060        0.35080        3.70690
H         -0.00410       -0.12140        5.08380
H          0.21210        1.62350        4.73440
H         -2.49000       -0.44050        4.60450
H         -2.22710        1.25960        5.08420
H         -3.20580        0.86320        3.62640
H          2.24180        3.31200        4.76290
H          3.03250        4.19360        3.42040
H          1.23420        4.19810        3.60110
H          3.88840        1.67210        3.72100
H          4.01460        2.34190        2.05170
H          3.25480        0.71720        2.37240
H          2.44250        5.42580        1.65100
H          3.25560        4.08060        0.76850
H          2.55610        5.45460       -0.12820
H          0.01630        5.18430        2.09320
H          0.14060        5.98320        0.49230
H         -0.94150        4.60180        0.67370
H          2.50280       -0.93850       -4.39210
H          1.91290        0.52520       -5.22830
H          2.91800        0.66560       -3.74170
H         -1.08540       -0.68900       -3.61170
H         -0.55700        0.45640       -4.91180
H          0.01540       -1.24200       -4.87310
H          3.28360        2.84780       -3.13570
H          2.54320        3.65240       -1.67830
H          2.63870        4.52280       -3.20820
H          0.03900        2.54510       -4.87860
H          1.81840        2.73930       -5.13830
H          0.77070        4.16010       -4.84600
H         -1.14520        4.47590       -3.12530
H         -1.46480        5.56590       -1.73740
H         -0.12200        4.42630       -1.63470
H         -4.12380        3.05990       -1.51650
H         -3.73710        4.70990       -0.96090
H         -3.57940        4.31330       -2.69220
H         -4.18930       -0.01710       -3.85060
H         -3.40670       -0.50310       -2.33950
H         -4.48630        0.96440       -2.36740
H         -2.88480        1.65120       -5.26550
H         -3.86780        2.62830       -4.13270
H         -2.10400        2.95640       -4.35070
H          3.74120        1.10190       -1.76450
H          3.79860        2.33490       -0.48220
H          7.16950        0.60070       -0.19460
H          6.20680        0.90100       -1.69160
H          6.26130        2.15020       -0.37390
