72
mol57-E-2
C          7.23680       -8.74540        5.57680
S          6.29540       -7.21190        5.30960
C          6.30950       -6.67540        7.05290
Ge         5.36970       -4.98000        7.29730
Ge         3.36910       -5.46160        8.51800
C          3.80890       -5.91370       10.35440
C          2.45790       -6.98080        7.71980
Ge         1.92760       -3.55650        8.48430
C          1.20980       -3.25230       10.26400
C          0.44170       -3.88460        7.27840
Ge         6.60500       -3.31290        8.51050
C          8.05660       -2.59740        7.43650
C          7.34210       -4.04600       10.15330
Ge         5.14730       -1.50750        9.08220
C          6.08480        0.17130        8.80850
C          4.69320       -1.62890       10.96590
Ge         3.15240       -1.63230        7.76140
Ge         3.73810       -1.94110        5.45090
C          5.02920       -0.61060        4.87190
C          2.16770       -1.82940        4.31020
Ge         4.72110       -4.10050        5.16520
C          6.23700       -3.94930        3.96040
C          3.42490       -5.28460        4.33610
C          2.02760       -0.07480        8.11730
S          1.86960        0.99570        6.64910
C          0.79420        2.23510        7.43440
H          6.69050       -9.40570        6.27620
H          7.35280       -9.27150        4.60750
H          8.24330       -8.51380        5.98280
H          7.36610       -6.52410        7.35350
H          5.87340       -7.44500        7.72290
H          2.89870       -6.28410       10.86880
H          4.58910       -6.70220       10.36300
H          4.18270       -5.01380       10.87850
H          1.56410       -7.23170        8.32670
H          2.14120       -6.72920        6.68930
H          3.14510       -7.85100        7.69420
H          0.59630       -4.12570       10.56540
H          0.57850       -2.34060       10.25600
H          2.03920       -3.12160       10.98570
H         -0.14380       -2.95100        7.15230
H         -0.20730       -4.67730        7.70340
H          0.82780       -4.21780        6.29630
H          8.53100       -1.75510        7.98000
H          7.65640       -2.23030        6.47140
H          8.81380       -3.38600        7.25760
H          6.54240       -4.55150       10.72890
H          7.76730       -3.22150       10.76130
H          8.14290       -4.77360        9.91460
H          5.44030        1.01140        9.13780
H          6.34140        0.28780        7.73730
H          7.01730        0.16910        9.40900
H          5.58480       -1.37560       11.57500
H          3.87190       -0.91920       11.19420
H          4.37290       -2.66090       11.20360
H          5.36240       -0.85040        3.84180
H          5.90380       -0.62390        5.55140
H          4.56050        0.39300        4.87720
H          1.78570       -0.78950        4.29660
H          1.38000       -2.50810        4.69120
H          2.44460       -2.13020        3.27910
H          6.65620       -4.95740        3.76700
H          7.01090       -3.29700        4.41080
H          5.89740       -3.50480        3.00270
H          3.27680       -4.98340        3.27910
H          2.46020       -5.21110        4.87280
H          3.79870       -6.32810        4.37760
H          1.01470       -0.44090        8.38160
H          2.42520        0.48220        8.99080
H          1.31440        2.69320        8.29630
H          0.55990        3.02920        6.69650
H         -0.15360        1.76550        7.77010
