84
mol52-B-0
C          2.54570       -4.34430       -4.16130
S          1.38800       -3.81860       -2.85980
C          2.05750       -2.12810       -2.74490
Si         1.12870       -1.13350       -1.45140
Si        -0.95940       -0.68540       -2.12900
O         -1.85040       -2.15880       -1.86700
C         -3.23410       -1.92270       -1.86400
O         -0.96520       -0.20690       -3.79890
C         -1.09050       -1.33270       -4.63090
Si        -1.63440        1.09310       -0.91010
O         -3.36240        1.09220       -0.74100
C         -3.96590        1.47290       -1.95610
O         -1.11420        2.52910       -1.73910
C         -1.44840        3.67140       -0.98770
Si         0.96440       -2.26440        0.49580
O          2.48220       -2.26980        1.33980
C          3.46050       -2.92890        0.57570
O          0.44690       -3.88300        0.13920
C          0.38160       -4.63740        1.32270
Si        -0.61750       -1.21430        1.73580
O         -2.14400       -1.88960        1.26120
C         -2.87690       -2.27510        2.39560
O         -0.44580       -1.26460        3.47100
C          0.80330       -1.77920        3.84520
Si        -0.63280        0.93030        1.10760
Si         1.49500        1.63430        0.88650
O          2.50820        1.05670        2.17160
C          2.12650        1.65250        3.38630
O          1.44420        3.37160        0.87150
C          2.72160        3.90340        0.63900
Si         2.26120        0.76570       -1.05170
O          3.92960        0.29130       -0.94920
C          4.74950        1.41120       -0.74540
O          2.02260        1.94960       -2.29950
C          2.38610        1.41580       -3.54720
C         -1.53070        1.97600        2.37780
S         -3.29570        1.53170        2.42860
C         -3.71200        2.73910        3.72460
H          2.34030       -5.40260       -4.42230
H          2.41000       -3.71800       -5.06760
H          3.59130       -4.25990       -3.79880
H          1.96490       -1.62250       -3.72600
H          3.13060       -2.16960       -2.47340
H         -3.57450       -1.38660       -2.77450
H         -3.54270       -1.39280       -0.94120
H         -3.75210       -2.90320       -1.85730
H         -0.96480       -1.00400       -5.68250
H         -0.30650       -2.09130       -4.43300
H         -2.10080       -1.78440       -4.54880
H         -3.88610        2.56740       -2.11600
H         -3.55380        0.93370       -2.83690
H         -5.04590        1.22740       -1.90020
H         -0.79480        3.76810       -0.10200
H         -2.51360        3.69020       -0.67090
H         -1.27800        4.56670       -1.61930
H          3.79200       -2.29110       -0.26670
H          3.12640       -3.92610        0.21120
H          4.34690       -3.10010        1.21950
H          1.36400       -4.68220        1.84230
H          0.10690       -5.67840        1.05710
H         -0.41000       -4.25560        2.00110
H         -3.85090       -2.68540        2.05930
H         -2.35630       -3.07970        2.96010
H         -3.09510       -1.40630        3.05470
H          1.63370       -1.15960        3.45000
H          0.87550       -1.74770        4.95130
H          0.90760       -2.84150        3.54290
H          2.85050        1.34320        4.16730
H          2.15210        2.76330        3.34060
H          1.12940        1.29270        3.71020
H          2.66330        5.00530        0.74820
H          3.05120        3.70090       -0.40050
H          3.46520        3.54500        1.38380
H          4.59090        2.19630       -1.51750
H          4.61720        1.81050        0.28030
H          5.80660        1.08680       -0.82980
H          3.39880        0.95320       -3.53770
H          2.41520        2.24380       -4.28430
H          1.62110        0.69510       -3.90060
H         -1.08280        1.80200        3.37560
H         -1.41910        3.04570        2.10950
H         -4.79490        2.66560        3.95290
H         -3.48780        3.76800        3.37350
H         -3.13480        2.52250        4.64750
