48
mol53-B-1
C         -1.94020       -2.59280        5.61750
S         -0.15390       -2.27990        5.44480
C         -0.32080       -0.81560        4.36680
Si         1.36350       -0.13470        3.92130
Si         2.66290       -1.63450        2.88770
C          1.79240       -2.38980        1.48610
N          1.23860       -2.86970        0.59070
C          3.13980       -2.91740        4.07850
N          3.44450       -3.73340        4.83990
Si         4.48980       -0.60450        2.11000
C          5.92810       -1.68580        2.34300
N          6.84450       -2.37590        2.49330
C          4.27840       -0.24240        0.34470
N          4.14120       -0.00940       -0.78020
Si         2.37730        0.49570        5.80780
C          2.24480       -0.83140        7.03790
N          2.16090       -1.67930        7.82040
C          1.57240        1.99550        6.43630
N          1.05950        2.95310        6.83440
Si         4.53000        0.91810        5.39100
C          5.07260        2.36540        6.34090
N          5.41780        3.28970        6.94480
C          5.52770       -0.52810        5.84570
N          6.16250       -1.45160        6.13290
Si         4.76800        1.32010        3.20950
Si         3.15090        2.72460        2.58060
C          3.49620        3.33570        0.90750
N          3.71710        3.72320       -0.16000
C          3.09660        4.11760        3.74210
N          3.06190        5.00370        4.48500
Si         1.18940        1.65410        2.59940
C         -0.10800        2.75490        3.22920
N         -0.93460        3.45620        3.63300
C          0.77620        1.11420        0.91680
N          0.51510        0.76770       -0.15550
C          6.42250        2.10370        2.83270
S          7.77440        1.06350        3.47050
C          9.09450        2.17600        2.89570
H         -2.37290       -2.86260        4.63180
H         -2.45240       -1.69310        6.01710
H         -2.09380       -3.43590        6.32160
H         -0.92240       -0.00860        4.83400
H         -0.82720       -1.12490        3.42970
H          6.51750        2.21990        1.73310
H          6.45670        3.10240        3.31570
H         10.07770        1.74560        3.17570
H          8.98900        3.17210        3.37370
H          9.05020        2.28220        1.79170
