72
mol57-A-2
C         -6.81580       -7.72250        1.76220
S         -5.31290       -6.95010        1.08700
C         -4.76860       -6.27360        2.68590
Ge        -3.10010       -5.30390        2.45760
Ge        -1.34810       -6.77220        1.75180
C         -0.77330       -7.90730        3.21960
C         -1.97770       -7.89180        0.29500
Ge         0.52060       -5.46960        1.03450
C          0.57660       -5.44020       -0.90590
C          2.15240       -6.31500        1.66290
Ge        -3.43780       -3.62860        0.78840
C         -5.01650       -2.58230        1.22040
C         -3.71020       -4.46660       -0.94190
Ge        -1.52260       -2.20300        0.71110
C         -1.95490       -0.50050        1.53800
C         -1.02460       -1.87590       -1.13830
Ge         0.29550       -3.23550        1.87700
Ge        -0.25980       -3.29870        4.21740
C         -0.26270       -1.51090        4.98140
C          1.00280       -4.39320        5.20800
Ge        -2.44430       -4.23260        4.49210
C         -2.42840       -5.50570        5.96000
C         -3.69860       -2.81550        4.92540
C          1.90100       -2.20700        1.44980
S          2.82150       -1.73260        2.95130
C          4.15240       -0.84610        2.08390
H         -6.54530       -8.47290        2.53400
H         -7.47630       -6.94840        2.20560
H         -7.36060       -8.23210        0.94130
H         -5.53350       -5.57320        3.08090
H         -4.60490       -7.09630        3.41250
H         -1.64080       -8.46560        3.62460
H         -0.32600       -7.28070        4.01570
H         -0.01260       -8.62470        2.84990
H         -2.26080       -7.25660       -0.56740
H         -2.86050       -8.47190        0.63330
H         -1.16910       -8.58740       -0.00930
H         -0.41910       -5.16410       -1.30080
H          1.33130       -4.70020       -1.24210
H          0.84980       -6.44790       -1.28000
H          3.02910       -5.74480        1.29400
H          2.19890       -7.35160        1.27140
H          2.15750       -6.34370        2.77030
H         -4.86150       -2.04980        2.17890
H         -5.19770       -1.84220        0.41420
H         -5.89190       -3.25750        1.30900
H         -4.54040       -5.19860       -0.86970
H         -2.78400       -4.98620       -1.25260
H         -3.96290       -3.68850       -1.69070
H         -2.42650       -0.67770        2.52380
H         -1.02690        0.09310        1.66780
H         -2.66410        0.05270        0.88910
H         -0.83040       -2.83820       -1.65040
H         -1.85320       -1.34790       -1.65270
H         -0.11000       -1.24920       -1.16850
H         -0.63840       -1.56120        6.02380
H         -0.92240       -0.85060        4.38590
H          0.76660       -1.10090        4.98380
H          1.10340       -5.38030        4.71670
H          0.62990       -4.53450        6.24280
H          1.98770       -3.88730        5.24320
H         -2.04390       -5.00660        6.87280
H         -1.77500       -6.36290        5.70580
H         -3.46010       -5.86700        6.14590
H         -3.57490       -1.98080        4.20890
H         -3.49600       -2.44770        5.95190
H         -4.73410       -3.20880        4.86740
H          1.58180       -1.27620        0.93860
H          2.53640       -2.78080        0.74380
H          4.68960       -1.53940        1.41000
H          3.73540        0.00160        1.50160
H          4.86910       -0.44970        2.83170
