144
mol59-D-2
C         -4.73780       -2.67430        3.11840
S         -3.99340       -1.20300        2.34790
C         -2.50010       -2.06700        1.77320
Ge        -1.20380       -0.93370        0.79500
Ge         1.09710       -1.80410        1.18810
C          1.44820       -1.49420        3.13510
C          0.83540       -2.56700        4.04060
C          2.91790       -1.35090        3.52080
C          1.23670       -3.76420        0.82130
C          0.25840       -4.63910        1.60810
C          2.65790       -4.28100        1.01860
Ge         2.62760       -0.55740       -0.32810
C          4.38810       -0.06500        0.49060
C          5.29330        0.79250       -0.41480
C          5.16380       -1.29290        0.98440
C          3.01890       -1.52950       -2.03350
C          1.95910       -2.57810       -2.33850
C          4.40050       -2.19430       -2.12870
Ge        -1.86250       -0.68810       -1.59690
C         -3.78350       -0.14820       -1.65750
C         -4.26220        0.22760       -3.06090
C         -4.72600       -1.19470       -1.05860
C         -1.62200       -2.33040       -2.72800
C         -2.67770       -2.54190       -3.81920
C         -1.47590       -3.61020       -1.91280
Ge        -0.35650        1.01940       -2.57670
C          0.44030        0.23430       -4.22710
C          1.61560        1.03320       -4.78600
C         -0.59720       -0.02340       -5.33030
C         -1.14970        2.79090       -3.03510
C         -1.66730        2.94300       -4.46830
C         -2.19900        3.21800       -2.02980
Ge         1.42160        1.50120       -0.93990
Ge         0.55670        2.57370        1.12270
C          0.07240        4.48610        0.82960
C          0.18200        5.33660        2.09910
C          0.90120        5.12230       -0.27560
C          2.00920        2.47170        2.48030
C          3.28570        3.15390        2.00210
C          1.64310        3.02140        3.86610
Ge        -1.38270        1.26980        1.92110
C         -1.33510        1.12060        3.91720
C         -1.96330        2.32450        4.62990
C         -1.99120       -0.15160        4.44010
C         -3.10890        2.15460        1.44070
C         -4.33070        1.34260        1.86100
C         -3.25990        3.59280        1.95480
C          2.83700        2.61220       -1.76970
S          2.28310        3.75940       -3.06950
C          3.94140        4.43400       -3.39760
H         -4.90340       -3.46270        2.35490
H         -4.07600       -3.06040        3.92140
H         -5.71480       -2.39410        3.56250
H         -2.83360       -2.88750        1.12660
H         -2.00420       -2.52170        2.64390
H          0.95880       -0.53480        3.36710
H         -0.16120       -2.87540        3.69660
H          0.73050       -2.17020        5.07330
H          1.48660       -3.46400        4.09140
H          3.37790       -0.50250        3.00970
H          3.48060       -2.28160        3.31800
H          3.00250       -1.13700        4.60820
H          0.98050       -3.91600       -0.23400
H          0.65370       -4.92030        2.60310
H         -0.70380       -4.13040        1.73500
H          0.07270       -5.58390        1.05350
H          3.34870       -3.74280        0.35190
H          2.98190       -4.15720        2.07080
H          2.71340       -5.35930        0.75630
H          4.16550        0.55900        1.36950
H          5.17020        0.55360       -1.48300
H          5.08650        1.86800       -0.28950
H          6.36510        0.66310       -0.15060
H          5.80970       -1.72150        0.19310
H          4.48060       -2.07940        1.33610
H          5.82390       -1.00290        1.82970
H          2.98210       -0.76060       -2.82760
H          2.24900       -3.56950       -1.93780
H          1.00030       -2.26390       -1.89750
H          1.84830       -2.70820       -3.43540
H          4.54920       -2.93570       -1.32330
H          5.22500       -1.46540       -2.11340
H          4.48930       -2.73130       -3.09790
H         -3.87790        0.75230       -1.03460
H         -5.05320        1.00490       -2.99490
H         -4.69550       -0.63970       -3.59950
H         -3.43020        0.62790       -3.65230
H         -4.58610       -2.18780       -1.52120
H         -4.56290       -1.29220        0.02280
H         -5.78400       -0.88460       -1.19710
H         -0.67890       -2.18670       -3.27540
H         -2.35840       -3.37100       -4.48690
H         -3.66030       -2.82020       -3.39710
H         -2.79480       -1.64950       -4.45210
H         -1.00320       -3.39120       -0.94420
H         -0.83910       -4.33900       -2.45860
H         -2.46100       -4.08870       -1.73860
H          0.85280       -0.73850       -3.92920
H          2.02780        0.52200       -5.68220
H          2.43000        1.09150       -4.04580
H          1.30200        2.05240       -5.08210
H         -0.49210       -1.05870       -5.71940
H         -1.62100        0.10500       -4.95010
H         -0.47980        0.67060       -6.18970
H         -0.33550        3.52210       -2.94400
H         -2.50410        2.26150       -4.69050
H         -0.85290        2.78030       -5.19690
H         -2.03170        3.98070       -4.62580
H         -2.46310        4.28730       -2.17490
H         -1.76670        3.10640       -1.02440
H         -3.11680        2.61250       -2.12970
H         -0.97730        4.52690        0.48860
H         -0.28190        6.33100        1.92530
H          1.24100        5.50140        2.37850
H         -0.35140        4.87020        2.94580
H          0.59040        4.68780       -1.23670
H          1.98460        4.96500       -0.10690
H          0.70460        6.21410       -0.33790
H          2.21810        1.39280        2.58980
H          4.10510        2.99260        2.73510
H          3.59770        2.71900        1.05260
H          3.13780        4.24300        1.86280
H          0.56100        3.08550        4.00050
H          2.04640        4.04190        4.03710
H          2.05920        2.36040        4.65620
H         -0.27530        1.07010        4.22250
H         -3.06970        2.27880        4.59210
H         -1.66360        2.32310        5.69970
H         -1.62720        3.28090        4.19440
H         -3.03260       -0.25000        4.07990
H         -1.39680       -1.01860        4.13190
H         -2.00300       -0.15440        5.55120
H         -3.12510        2.20520        0.34800
H         -5.25910        1.84260        1.51020
H         -4.38710        1.23260        2.96070
H         -4.30130        0.35250        1.39750
H         -3.79270        4.20960        1.19960
H         -3.84600        3.64320        2.89570
H         -2.28810        4.05470        2.15210
H          3.56950        1.92710       -2.22940
H          3.34400        3.21430       -1.00100
H          4.34920        4.90770       -2.48050
H          4.62160        3.62560       -3.73810
H          3.86790        5.20070       -4.19560
