108
mol58-C-0
C          1.90370       -0.49960        6.10990
S          2.24270       -0.60220        4.32520
C          0.57640       -0.07280        3.82930
Ge         0.38170       -0.00590        1.88320
Ge        -1.62250       -1.25180        1.45570
C         -1.25610       -3.16200        1.61870
C         -0.68400       -3.49770        2.98770
C         -2.96970       -0.69120        2.75660
C         -4.17220       -1.62280        2.75530
Ge        -2.40430       -0.81300       -0.75850
C         -2.97930       -2.48250       -1.59640
C         -4.27380       -2.99940       -0.98710
C         -3.91160        0.42650       -0.64430
C         -4.48090        0.75050       -2.01610
Ge         2.17130       -0.95120        0.57980
C          3.73210        0.22630        0.49260
C          4.39050        0.42010        1.84690
C          2.70300       -2.68970        1.29930
C          3.92760       -3.22970        0.57610
Ge         1.40710       -1.20190       -1.68730
C          2.89700       -0.58570       -2.80680
C          2.47660       -0.27170       -4.23330
C          0.96940       -3.08850       -1.99150
C          1.88720       -3.75210       -3.00830
Ge        -0.58650        0.12400       -2.01170
Ge        -0.16190        2.35010       -1.20690
C         -1.60030        3.58620       -1.68610
C         -1.76250        3.71270       -3.19450
C          1.50260        2.95770       -2.03180
C          1.72030        4.45290       -1.84670
Ge         0.05040        2.27090        1.19480
C          1.53870        3.40740        1.76080
C          1.76640        3.33820        3.26380
C         -1.59390        2.88400        2.05370
C         -1.70200        4.40230        2.05600
C         -1.10540        0.15060       -3.89340
S         -0.94140       -1.50970       -4.62010
C         -1.50330       -1.00080       -6.27400
H          1.63680        0.54140        6.38780
H          2.81430       -0.79780        6.66860
H          1.07460       -1.18600        6.38110
H          0.34530        0.92720        4.24800
H         -0.16030       -0.79430        4.23410
H         -2.19680       -3.72780        1.46330
H         -0.53740       -3.45660        0.82860
H          0.28910       -2.98680        3.13490
H         -1.38830       -3.18660        3.78740
H         -0.52070       -4.59320        3.06230
H         -3.29920        0.33910        2.51150
H         -2.51570       -0.68530        3.76830
H         -3.86160       -2.65800        3.00690
H         -4.66650       -1.61480        1.76410
H         -4.90520       -1.28020        3.51530
H         -3.12950       -2.30600       -2.68130
H         -2.18800       -3.24580       -1.46010
H         -4.57510       -3.93610       -1.50120
H         -4.13090       -3.22180        0.08890
H         -5.08740       -2.25490       -1.10800
H         -4.70490       -0.03070       -0.01970
H         -3.57920        1.35950       -0.15300
H         -3.75830        1.35790       -2.59200
H         -4.71630       -0.17960       -2.57420
H         -5.41330        1.34150       -1.89900
H          3.42210        1.20930        0.09070
H          4.46920       -0.22180       -0.20570
H          3.72200        0.99850        2.51080
H          5.33260        0.99350        1.72080
H          4.63060       -0.55910        2.31030
H          2.93510       -2.58800        2.37770
H          1.86360       -3.40370        1.18970
H          3.73510       -3.29600       -0.51260
H          4.80240       -2.57010        0.75180
H          4.16730       -4.24400        0.95840
H          3.68980       -1.36160       -2.81200
H          3.32420        0.33260       -2.35790
H          1.98040       -1.14110       -4.70410
H          1.79510        0.59920       -4.24430
H          3.37460       -0.01360       -4.83280
H         -0.07360       -3.16060       -2.35220
H          1.03930       -3.63390       -1.03050
H          2.94920       -3.64890       -2.70940
H          1.64480       -4.83370       -3.07010
H          1.73690       -3.30890       -4.01220
H         -2.55070        3.24020       -1.23310
H         -1.35470        4.58510       -1.27240
H         -2.10730        2.75790       -3.62940
H         -0.80480        4.00390       -3.67210
H         -2.52170        4.49060       -3.41960
H          1.46390        2.72880       -3.11640
H          2.34850        2.40410       -1.58270
H          1.74850        4.71360       -0.77240
H          0.91320        5.03130       -2.33980
H          2.68910        4.74340       -2.30450
H          2.46100        3.09830        1.22870
H          1.30360        4.45560        1.48580
H          0.83030        3.56410        3.81480
H          2.12710        2.33400        3.55300
H          2.53840        4.08080        3.55500
H         -1.60870        2.51290        3.09990
H         -2.45990        2.45470        1.51600
H         -1.63550        4.79970        1.02500
H         -2.67950        4.70190        2.48870
H         -0.89540        4.84950        2.67180
H         -0.47260        0.87830       -4.43900
H         -2.16300        0.46260       -3.97340
H         -0.81430       -0.23750       -6.69180
H         -2.53240       -0.58850       -6.21750
H         -1.50680       -1.88560       -6.94270
