132
mol50-C-1
C         -6.24410        0.60850        1.75740
S         -4.46820        0.61100        2.15660
C         -3.91650        0.57780        0.42590
Si        -2.03080        0.56690        0.10990
Si        -1.06470       -1.56900        0.02080
N         -1.60300       -2.68010        1.37960
C         -1.49900       -4.12390        1.12660
C         -2.86330       -2.35060        2.04640
N         -1.51030       -2.29370       -1.61460
C         -0.42200       -3.00890       -2.28820
C         -2.71130       -3.14560       -1.61490
Si         1.25110       -1.27260        0.30180
N          2.05710       -2.52620       -0.77050
C          2.26700       -3.85600       -0.18140
C          3.23120       -2.09390       -1.52950
N          1.80150       -1.47470        2.04940
C          0.88010       -2.23250        2.90160
C          3.16030       -2.01610        2.21870
Si        -1.13880        1.74140        1.92690
N         -2.02210        3.29000        2.37100
C         -1.88700        3.74540        3.75960
C         -3.40690        3.40500        1.92040
N         -1.15590        0.55810        3.33440
C          0.00470        0.63300        4.22990
C         -2.39330        0.55720        4.12960
Si         0.99910        2.41910        1.33080
N          1.98350        2.37450        2.87760
C          2.03830        3.60930        3.66940
C          3.30930        1.78030        2.74820
N          1.05650        4.08900        0.56360
C          2.33860        4.79370        0.72030
C         -0.04550        4.98410        0.93600
Si         1.72460        0.94070       -0.31430
Si         0.64460        1.42700       -2.33270
N          0.95960       -0.02110       -3.42130
C          2.18760        0.06320       -4.22650
C         -0.16450       -0.41720       -4.27790
N          1.17640        2.98270       -3.15300
C          2.48950        3.50290       -2.77950
C          0.98130        3.05640       -4.60580
Si        -1.60530        1.73810       -1.85640
N         -2.04970        3.48680       -1.50360
C         -1.16260        4.48890       -2.10590
C         -3.45100        3.83420       -1.78790
N         -2.51410        1.11380       -3.32220
C         -3.67910        0.28970       -3.02070
C         -2.81830        2.08370       -4.38130
C          3.56930        1.29200       -0.67430
S          4.79540        0.31900        0.24810
C          6.24080        1.10750       -0.52820
H         -6.82640        0.62910        2.70110
H         -6.50740       -0.31060        1.19330
H         -6.50200        1.50560        1.15690
H         -4.36260       -0.31590       -0.03550
H         -4.34820        1.46360       -0.06150
H         -2.45170       -4.54840        0.74710
H         -0.69270       -4.35730        0.41220
H         -1.25960       -4.64280        2.07810
H         -3.73740       -2.71280        1.47150
H         -2.88710       -2.83300        3.04660
H         -2.94360       -1.26820        2.21580
H         -0.76230       -3.37890       -3.28030
H          0.41410       -2.32750       -2.49650
H         -0.07840       -3.87900       -1.69710
H         -2.46250       -4.22760       -1.54610
H         -3.26630       -2.99080       -2.56340
H         -3.39010       -2.91320       -0.78520
H          1.51300       -4.08620        0.58910
H          2.17340       -4.62440       -0.97690
H          3.27920       -3.95820        0.26220
H          4.14790       -2.10860       -0.90890
H          3.07550       -1.09180       -1.95140
H          3.38750       -2.78110       -2.38790
H          0.75260       -3.27120        2.54170
H          1.26680       -2.27370        3.94360
H         -0.09090       -1.72280        2.96560
H          3.15800       -3.11130        2.41370
H          3.64200       -1.52360        3.08870
H          3.79310       -1.84230        1.33970
H         -0.90640        3.48170        4.18330
H         -2.69650        3.34540        4.40390
H         -1.95790        4.85320        3.78540
H         -4.06600        2.68310        2.44050
H         -3.44930        3.27630        0.83190
H         -3.78940        4.42910        2.12120
H          0.92240        0.36140        3.68580
H         -0.09050       -0.11380        5.04840
H          0.11160        1.63130        4.69150
H         -2.56380       -0.46480        4.52830
H         -2.32910        1.24120        5.00140
H         -3.27760        0.82430        3.52960
H          2.12070        3.34360        4.74420
H          2.92440        4.22600        3.41000
H          1.12330        4.21060        3.55950
H          3.80410        1.71660        3.74160
H          3.95150        2.37730        2.07040
H          3.20500        0.74590        2.38840
H          2.35100        5.44020        1.62270
H          3.19480        4.09910        0.76310
H          2.49510        5.45920       -0.15440
H         -0.07950        5.17310        2.02440
H          0.06320        5.96340        0.42080
H         -1.00570        4.57060        0.59240
H          2.58980       -0.96060       -4.37730
H          1.99760        0.49080       -5.23300
H          2.97500        0.65220       -3.73020
H         -1.01410       -0.74820       -3.66070
H         -0.47640        0.39520       -4.95890
H          0.11470       -1.29610       -4.89930
H          3.30490        2.84230       -3.13200
H          2.53000        3.64730       -1.69290
H          2.64200        4.50920       -3.22640
H          0.09470        2.49090       -4.92880
H          1.87590        2.70420       -5.15890
H          0.80690        4.11450       -4.89400
H         -1.14210        4.41870       -3.20860
H         -1.49820        5.51340       -1.83360
H         -0.14440        4.39030       -1.70030
H         -4.13150        2.97800       -1.64250
H         -3.77360        4.63590       -1.09090
H         -3.58140        4.23040       -2.81660
H         -4.12100       -0.11400       -3.95750
H         -3.35910       -0.58140       -2.43010
H         -4.45490        0.87320       -2.48610
H         -2.81150        1.56050       -5.36030
H         -3.82520        2.53320       -4.25100
H         -2.06170        2.88040       -4.44060
H          3.75870        1.11050       -1.74190
H          3.77960        2.35200       -0.46680
H          7.16480        0.65910       -0.10970
H          6.22480        0.93880       -1.62510
H          6.24200        2.19680       -0.31470
