144
mol59-B-2
C         -4.44250       -4.23530        0.44380
S         -3.80960       -2.60930       -0.07170
C         -2.17160       -2.83780        0.68230
Ge        -1.01540       -1.27140        0.40130
Ge         1.31020       -1.91900        0.95530
C          1.84460       -3.25020       -0.44010
C          1.91460       -4.70180        0.04810
C          3.14470       -2.91920       -1.16630
C          1.42930       -2.71310        2.79000
C          0.17600       -3.48030        3.19780
C          2.66090       -3.59760        3.02400
Ge         2.57110        0.20340        0.99450
C          4.45560        0.08290        0.34570
C          5.18200       -1.14940        0.89050
C          5.29450        1.32600        0.66690
C          2.65560        0.79700        2.88280
C          2.97010        2.28580        3.02090
C          3.64740       -0.01500        3.72320
Ge        -1.26680       -0.65680       -1.97340
C         -2.97340        0.31940       -2.21910
C         -4.14280       -0.34190       -1.49150
C         -3.33960        0.52590       -3.69310
C         -1.35670       -2.27320       -3.14210
C         -2.66120       -3.06580       -2.99180
C         -1.16000       -1.93440       -4.62180
Ge         0.55640        0.92140       -2.50370
C          2.20670        0.13810       -3.32080
C          2.06470       -1.31370       -3.76720
C          2.79890        0.94890       -4.47940
C         -0.21790        2.34940       -3.67500
C          0.41170        3.72030       -3.45120
C         -0.19990        2.02460       -5.17430
Ge         1.26740        1.83640       -0.31470
Ge        -0.69140        2.63290        0.97850
C         -0.19980        3.87960        2.46820
C          0.69320        5.06300        2.07280
C         -1.42570        4.40820        3.20980
C         -1.74600        3.68990       -0.35440
C         -1.22900        5.12240       -0.52150
C         -3.25090        3.75510       -0.10810
Ge        -1.78370        0.57170        1.86990
C         -3.77660        0.77800        1.90050
C         -4.56960       -0.50220        2.19480
C         -4.23080        1.87550        2.86030
C         -1.22050       -0.00980        3.70040
C         -0.94260        1.11260        4.69680
C         -2.21040       -0.98460        4.34630
C          2.47460        3.35360       -0.64720
S          3.72040        2.95820       -1.91040
C          4.52700        4.58770       -1.84360
H         -4.43050       -4.31600        1.55070
H         -5.48690       -4.34570        0.08710
H         -3.82400       -5.04320        0.00020
H         -1.70650       -3.74480        0.26480
H         -2.30880       -3.00750        1.76320
H          1.03150       -3.20260       -1.18730
H          1.85250       -5.38870       -0.82310
H          2.87350       -4.90880        0.56450
H          1.08620       -4.95000        0.72790
H          3.15710       -3.43750       -2.14780
H          3.22730       -1.83480       -1.33050
H          4.03350       -3.28890       -0.62120
H          1.51250       -1.85890        3.48650
H         -0.68910       -2.81560        3.14760
H         -0.00600       -4.35740        2.55090
H          0.26630       -3.83020        4.24860
H          3.52920       -3.25500        2.44190
H          2.45890       -4.65860        2.77420
H          2.93910       -3.56800        4.09930
H          4.40720       -0.00080       -0.75660
H          5.99410       -1.44990        0.19490
H          4.48440       -1.98270        1.00480
H          5.63090       -0.96990        1.88820
H          4.71740        2.25010        0.53710
H          5.67050        1.31460        1.70930
H          6.17510        1.36770       -0.00910
H          1.64430        0.62820        3.28840
H          2.38800        2.86330        2.29280
H          2.70490        2.63350        4.04190
H          4.04150        2.50540        2.85250
H          3.37590        0.06030        4.79760
H          4.68400        0.35970        3.60730
H          3.64400       -1.07860        3.43630
H         -2.81190        1.31080       -1.76420
H         -4.51920       -1.23420       -2.02680
H         -4.98190        0.37930       -1.39420
H         -3.83310       -0.65550       -0.48730
H         -3.84180       -0.36590       -4.11820
H         -2.44720        0.72930       -4.30640
H         -4.03510        1.38670       -3.78820
H         -0.53280       -2.94030       -2.82530
H         -3.48870       -2.61750       -3.57690
H         -2.98880       -3.11420       -1.94580
H         -2.51220       -4.10380       -3.35820
H         -2.10530       -1.63350       -5.11680
H         -0.75180       -2.81490       -5.16180
H         -0.46690       -1.09670       -4.73140
H          2.95050        0.15740       -2.50350
H          1.64470       -1.39790       -4.78730
H          3.07040       -1.78090       -3.81680
H          1.44150       -1.87490       -3.05560
H          2.26950        0.74010       -5.43090
H          3.86350        0.66550       -4.62340
H          2.76520        2.03130       -4.28630
H         -1.27930        2.44200       -3.38080
H          0.29290        4.00800       -2.40440
H          1.48640        3.73350       -3.70820
H         -0.10730        4.48530       -4.06760
H         -0.30780        0.94620       -5.36220
H          0.72990        2.38140       -5.66150
H         -1.04480        2.54360       -5.67570
H          0.38970        3.29560        3.18280
H          0.10740        5.94030        1.73620
H          1.40230        4.78750        1.28430
H          1.28350        5.39290        2.95470
H         -1.11060        5.04820        4.06170
H         -2.06870        5.01020        2.53850
H         -2.01160        3.57800        3.62560
H         -1.59960        3.17490       -1.31490
H         -1.58720        5.54030       -1.48680
H         -0.12700        5.15900       -0.53000
H         -1.60940        5.77900        0.28740
H         -3.71180        2.77140       -0.24240
H         -3.73050        4.41110       -0.86660
H         -3.47730        4.17880        0.88590
H         -4.07500        1.08030        0.89120
H         -4.72250       -0.66460        3.27930
H         -4.08090       -1.38600        1.77020
H         -5.57990       -0.42560        1.73810
H         -3.78230        2.83860        2.58380
H         -5.33390        1.99820        2.80640
H         -3.95630        1.63010        3.90490
H         -0.27480       -0.55180        3.55500
H         -0.05840        1.68650        4.40220
H         -0.69680        0.68310        5.69210
H         -1.82560        1.76270        4.82620
H         -3.06880       -0.44220        4.79210
H         -1.70710       -1.54300        5.16460
H         -2.58640       -1.72380        3.61960
H          2.99960        3.62010        0.28520
H          1.90580        4.24060       -0.96780
H          3.80400        5.38260       -2.12170
H          5.37100        4.60230       -2.56300
H          4.92120        4.77680       -0.82350
