144
mol59-E-1
C          5.13120        4.17920       -1.26590
S          4.22510        2.64330       -1.62840
C          2.84190        3.01610       -0.51210
Ge         1.42620        1.64270       -0.44780
Ge        -0.38760        2.05830        1.19760
C          0.07430        1.60520        3.09030
C          1.05620        2.59360        3.73400
C          0.57040        0.17200        3.20500
C         -0.90300        3.98430        1.30010
C          0.28040        4.93580        1.52570
C         -1.96730        4.24260        2.36870
Ge        -2.24650        0.57010        0.48130
C         -3.71140        1.45120       -0.56100
C         -4.03520        2.88670       -0.16610
C         -5.02180        0.65820       -0.56020
C         -3.02810       -0.23980        2.12810
C         -3.68430        0.81310        3.02310
C         -4.03220       -1.37150        1.87910
Ge         2.54810       -0.55200       -0.16260
C          3.45480       -0.90980        1.58700
C          4.67110       -1.83490        1.48480
C          3.84960        0.35590        2.33290
C          3.94510       -0.43160       -1.58590
C          5.17070        0.39730       -1.16860
C          4.40120       -1.76980       -2.15990
Ge         0.76050       -2.26580       -0.28310
C          1.27390       -3.79750       -1.46190
C          0.21890       -4.90390       -1.49930
C          2.63140       -4.42130       -1.11570
C          0.45670       -3.05620        1.52720
C          1.49290       -4.10860        1.92480
C         -0.94570       -3.62610        1.68660
Ge        -1.31600       -1.14000       -1.06930
Ge        -0.90800       -0.07460       -3.24320
C         -2.58450        0.57320       -4.13530
C         -3.79660       -0.31110       -3.86440
C         -2.47020        0.81160       -5.64930
C         -0.00460       -1.52680       -4.26280
C         -0.55150       -1.77170       -5.66590
C          1.50920       -1.37810       -4.28720
Ge         0.47370        1.89490       -2.73480
C          1.86200        2.13980       -4.15060
C          1.29300        1.95800       -5.56000
C          2.58170        3.49020       -4.09190
C         -0.71160        3.49570       -2.73010
C         -1.18370        3.92610       -4.12040
C         -0.05870        4.69870       -2.05850
C         -2.68170       -2.55080       -1.31270
S         -2.66880       -3.30920       -2.97110
C         -4.04120       -4.45340       -2.62700
H          5.37690        4.23190       -0.18480
H          6.07450        4.18830       -1.84930
H          4.52100        5.05960       -1.55670
H          2.36890        3.96150       -0.83160
H          3.26010        3.18350        0.49280
H         -0.85150        1.67190        3.69020
H          0.51370        3.47630        4.12060
H          1.56620        2.15480        4.61740
H          1.81910        2.92430        3.01320
H          1.42900        0.05500        3.89780
H         -0.22630       -0.48820        3.59540
H          0.87130       -0.16510        2.20470
H         -1.33260        4.25640        0.32740
H          0.52310        5.07110        2.59600
H          0.03090        5.94050        1.12190
H          1.18150        4.57880        1.00920
H         -1.57390        4.06370        3.38810
H         -2.83510        3.58690        2.22200
H         -2.31990        5.29430        2.30670
H         -3.34140        1.48660       -1.59430
H         -4.83460        3.28740       -0.82630
H         -4.40820        2.93890        0.87340
H         -3.16870        3.53540       -0.32140
H         -5.66210        0.99100       -1.40510
H         -4.84920       -0.41890       -0.68040
H         -5.58880        0.82530        0.37830
H         -2.18500       -0.68380        2.68330
H         -4.56890        1.25950        2.52700
H         -2.97860        1.61790        3.27360
H         -4.01400        0.34870        3.97700
H         -5.04070       -0.99080        1.62990
H         -4.13400       -1.98280        2.80130
H         -3.69960       -2.04060        1.07680
H          2.72210       -1.44000        2.22110
H          5.53530       -1.32510        1.02360
H          4.97920       -2.15730        2.50260
H          4.44280       -2.74460        0.91100
H          4.73480        0.83670        1.87360
H          3.00220        1.05620        2.34190
H          4.10170        0.11210        3.38720
H          3.46770        0.13020       -2.40280
H          4.93050        1.10140       -0.35630
H          6.01420       -0.23910       -0.83410
H          5.53710        0.98670       -2.03660
H          3.54230       -2.34450       -2.54050
H          5.08250       -1.59420       -3.01980
H          4.95460       -2.35950       -1.40260
H          1.36250       -3.38570       -2.47740
H          0.38550       -5.55530       -2.38340
H         -0.78570       -4.48110       -1.56520
H          0.25240       -5.53750       -0.59090
H          3.12570       -4.78820       -2.04060
H          3.28160       -3.68200       -0.63900
H          2.54870       -5.28480       -0.42640
H          0.54060       -2.25680        2.26770
H          1.28620       -5.08110        1.43820
H          1.45560       -4.27350        3.02300
H          2.51410       -3.77470        1.67220
H         -1.13320       -4.44810        0.96930
H         -1.08890       -4.01670        2.71690
H         -1.67660       -2.81900        1.53490
H         -2.79930        1.55810       -3.68260
H         -3.87060       -0.54130       -2.79280
H         -3.73920       -1.25250       -4.44560
H         -4.72570        0.22040       -4.16200
H         -2.66950       -0.10650       -6.23610
H         -3.22900        1.56050       -5.96220
H         -1.48060        1.20100       -5.93260
H         -0.21500       -2.44770       -3.69420
H         -0.04110       -2.64800       -6.11980
H         -1.63130       -2.01520       -5.61380
H         -0.37760       -0.89930       -6.32490
H          1.98370       -2.35990       -4.49830
H          1.83560       -1.02600       -3.29800
H          1.85870       -0.68410       -5.06990
H          2.62220        1.35370       -3.99850
H          0.67280        2.82010       -5.87100
H          0.67510        1.05330       -5.61750
H          2.12300        1.85130       -6.29070
H          1.92930        4.31210       -4.44610
H          3.47540        3.46370       -4.75140
H          2.92910        3.72800       -3.07880
H         -1.60250        3.21120       -2.13450
H         -2.07280        4.58550       -4.02550
H         -1.46510        3.06490       -4.73300
H         -0.39840        4.49040       -4.66240
H          0.34000        4.40180       -1.08870
H         -0.81020        5.50070       -1.89540
H          0.77330        5.11310       -2.65850
H         -2.53600       -3.34100       -0.55720
H         -3.68290       -2.13000       -1.15780
H         -3.77190       -5.13100       -1.79020
H         -4.95790       -3.88310       -2.36980
H         -4.23940       -5.06230       -3.53250
