24
mol56-A-1
C         -0.01820        4.86270       -2.67570
S         -0.85780        3.27180       -2.39780
C          0.45990        2.59700       -1.33770
Ge        -0.02640        0.80390       -0.76550
Ge         1.68780       -0.10330        0.63720
Ge         1.21230       -2.41040        1.06080
Ge        -2.07640        0.88640        0.46530
Ge        -2.49090       -1.26030        1.44030
Ge        -1.04750       -2.87390        0.42210
Ge        -1.24490       -2.70320       -1.95730
Ge        -0.31860       -0.61480       -2.67110
C         -1.55290       -4.65760        1.00660
S         -0.45320       -5.88320        0.22950
C         -1.25250       -7.31490        1.01930
H          0.13600        5.38670       -1.70950
H         -0.65080        5.49610       -3.33060
H          0.96000        4.69630       -3.17320
H          1.41390        2.54570       -1.90220
H          0.59060        3.23580       -0.43970
H         -2.60500       -4.84690        0.70820
H         -1.46220       -4.71100        2.11140
H         -2.31980       -7.36970        0.71950
H         -1.17610       -7.23370        2.12360
H         -0.73960       -8.24220        0.69140
