24
mol56-A-0
C          1.14000        4.72180       -2.31300
S          1.35100        2.98720       -1.80380
C         -0.42750        2.69600       -1.54450
Ge        -0.70310        0.86300       -0.95870
Ge         0.46000        0.47460        1.09700
Ge         0.36410       -1.85880        1.62110
Ge        -3.03920        0.47620       -0.61600
Ge        -3.33540       -1.66420        0.41420
Ge        -1.29490       -2.90210        0.24680
Ge        -0.55760       -2.88340       -2.03040
Ge         0.10300       -0.65980       -2.62030
C         -1.59440       -4.73040        0.83540
S         -0.04010       -5.67000        0.70620
C         -0.75930       -7.22360        1.32380
H          0.50690        4.77810       -3.22290
H          2.13510        5.15570       -2.54080
H          0.67260        5.30620       -1.49320
H         -0.81610        3.38290       -0.76430
H         -0.98160        2.85550       -2.49270
H         -2.37210       -5.19060        0.19110
H         -1.94320       -4.71430        1.88890
H         -1.57900       -7.55760        0.65400
H         -1.14970       -7.08090        2.35300
H          0.02840       -8.00420        1.34380
