156
mol55-A-0
C          2.70670       -4.77320       -3.20760
S          2.15060       -3.04090       -3.17270
C          1.52050       -3.11620       -1.45900
Si         0.75290       -1.50740       -0.76820
Si         2.21610       -0.61890        0.92150
C          2.66420       -1.98800        2.21410
C          3.56120       -3.02670        1.82800
F          4.08730       -3.09150        0.58370
C          3.99880       -3.99020        2.74140
F          4.84550       -4.97010        2.33720
C          3.59210       -3.93630        4.06820
F          4.02460       -4.86930        4.95240
C          2.75700       -2.90960        4.48940
F          2.39360       -2.83350        5.79450
C          2.31940       -1.93480        3.58700
F          1.63390       -0.91650        4.11270
C          4.03590       -0.36530        0.42370
C          4.99850       -0.06820        1.41910
F          4.67570       -0.09370        2.73120
C          6.33790        0.15090        1.08050
F          7.23830        0.46180        2.04610
C          6.75780        0.01050       -0.24030
F          8.05870        0.21200       -0.56620
C          5.85010       -0.40550       -1.21160
F          6.27570       -0.63650       -2.47870
C          4.50950       -0.62000       -0.87530
F          3.70770       -1.16160       -1.80170
Si         1.24800        1.46910        1.62840
C          2.22250        3.12890        1.42520
C          3.44860        3.25590        0.72720
F          4.04230        2.21880        0.13130
C          4.15270        4.46400        0.69910
F          5.31630        4.55150        0.00700
C          3.68920        5.56660        1.40500
F          4.38540        6.73050        1.38520
C          2.52040        5.46490        2.14820
F          2.08760        6.52930        2.86930
C          1.80330        4.26530        2.17720
F          0.73670        4.21960        3.00760
C          1.25880        1.58960        3.52820
C          0.08110        1.70050        4.28780
F         -1.10940        1.83470        3.68860
C          0.12460        1.76880        5.68420
F         -1.02810        1.85110        6.39440
C          1.35000        1.78890        6.34630
F          1.39090        1.86160        7.70000
C          2.53180        1.80410        5.60910
F          3.72370        1.92100        6.24590
C          2.48950        1.74080        4.21240
F          3.64370        1.93620        3.53700
Si         0.23450       -0.04740       -2.57800
C          1.85870        0.33320       -3.46990
C          2.16910       -0.13050       -4.77170
F          1.35770       -0.98080       -5.44340
C          3.36090        0.25780       -5.39590
F          3.65050       -0.19540       -6.64110
C          4.25340        1.10910       -4.74390
F          5.40320        1.48740       -5.35540
C          3.96560        1.56040       -3.45750
F          4.83360        2.38140       -2.81560
C          2.78440        1.16120       -2.82680
F          2.53210        1.57840       -1.57530
C         -0.87660       -0.76930       -3.96350
C         -1.13280       -2.15240       -4.07810
F         -0.67270       -3.02770       -3.17260
C         -1.86880       -2.66950       -5.14960
F         -2.09830       -4.00410       -5.23140
C         -2.35770       -1.82370       -6.13920
F         -3.07690       -2.32820       -7.17260
C         -2.08970       -0.46070       -6.07370
F         -2.54950        0.36440       -7.04740
C         -1.33990        0.06000       -5.01470
F         -1.10330        1.38530       -5.01990
Si        -0.58230        2.00640       -1.74330
C          0.63070        3.43000       -2.18650
C          0.92070        4.46610       -1.27440
F          0.27850        4.54470       -0.09960
C          1.74790        5.53780       -1.62950
F          1.94500        6.55990       -0.76110
C          2.31390        5.59770       -2.89780
F          3.12240        6.63300       -3.23520
C          1.99490        4.62530       -3.83820
F          2.50000        4.71060       -5.09430
C          1.13080        3.57840       -3.50320
F          0.80750        2.71460       -4.48250
C         -2.17850        2.68940       -2.54530
C         -3.14270        1.83050       -3.09740
F         -3.05240        0.51030       -2.91530
C         -4.26130        2.32340       -3.77490
F         -5.16490        1.46240       -4.30600
C         -4.46870        3.69540       -3.87430
F         -5.56210        4.17410       -4.51830
C         -3.56940        4.57280       -3.27490
F         -3.79500        5.90940       -3.33050
C         -2.44110        4.08250       -2.60760
F         -1.64630        4.98940       -1.99920
Si        -0.89850        1.61970        0.55360
Si        -2.35280       -0.24350        0.85260
C         -2.72550       -0.36820        2.70290
C         -3.99560       -0.10070        3.26980
F         -5.02620        0.37310        2.53090
C         -4.21320       -0.29000        4.64010
F         -5.43220       -0.02670        5.17350
C         -3.18240       -0.74810        5.46110
F         -3.40010       -0.93600        6.78640
C         -1.92480       -1.00110        4.91740
F         -0.91660       -1.43850        5.71230
C         -1.70130       -0.79770        3.55320
F         -0.47690       -1.01610        3.04610
C         -4.09090       -0.10380        0.05610
C         -4.60450        1.12190       -0.41890
F         -3.86730        2.24190       -0.40730
C         -5.91020        1.22180       -0.91110
F         -6.37470        2.41450       -1.36070
C         -6.74050        0.10630       -0.93170
F         -8.00320        0.20560       -1.41640
C         -6.27550       -1.10690       -0.43590
F         -7.08920       -2.19220       -0.43750
C         -4.97740       -1.20900        0.07350
F         -4.59560       -2.40780        0.55230
Si        -1.23840       -2.23640        0.24580
C         -2.18580       -3.43930       -0.90020
C         -3.14090       -2.97290       -1.81800
F         -3.28050       -1.66270       -2.03770
C         -3.90970       -3.85150       -2.58590
F         -4.83170       -3.36370       -3.45310
C         -3.70610       -5.22420       -2.48940
F         -4.44120       -6.07680       -3.24590
C         -2.71660       -5.71560       -1.64240
F         -2.48480       -7.05090       -1.58200
C         -1.95450       -4.83890       -0.86170
F         -0.97310       -5.38260       -0.10990
C         -1.02100       -3.36760        1.78460
C          0.16320       -4.10230        2.00150
F          1.14150       -4.11220        1.08410
C          0.28720       -4.97960        3.08490
F          1.40540       -5.73270        3.22410
C         -0.76170       -5.13820        3.98360
F         -0.63460       -5.98230        5.03760
C         -1.96330       -4.47660        3.75940
F         -3.00810       -4.67220        4.60220
C         -2.10830       -3.63600        2.65160
F         -3.32010       -3.08600        2.45520
C         -1.77710        3.20590        1.15950
S         -3.22630        2.96310        2.24590
C         -3.56720        4.73930        2.44560
H          3.16250       -4.98620       -4.19600
H          3.46570       -4.94650       -2.41650
H          1.84290       -5.45360       -3.05630
H          0.76100       -3.91860       -1.40180
H          2.35800       -3.41820       -0.82440
H         -2.09800        3.78740        0.27490
H         -1.06470        3.82470        1.71180
H         -3.79300        5.19710        1.45990
H         -4.44620        4.86580        3.10990
H         -2.69330        5.24660        2.90500
