48
mol53-E-0
C          5.61090       -6.31180        8.23650
S          5.36810       -6.70590        6.47440
C          3.70990       -5.95360        6.33840
Si         3.04570       -6.13990        4.59950
Si         4.37420       -5.13500        3.11660
C          5.84900       -6.15890        2.85220
N          6.78720       -6.81430        2.68330
C          4.86240       -3.50370        3.74250
N          5.17150       -2.46310        4.14250
Si         3.27170       -4.90820        1.18610
C          4.42790       -5.20570       -0.18040
N          5.16680       -5.39660       -1.04990
C          2.60440       -3.22540        1.06360
N          2.17700       -2.15300        0.98790
Si         2.80760       -8.27680        3.98410
C          1.47030       -9.02040        4.95910
N          0.61600       -9.49190        5.58030
C          4.34700       -9.20050        4.24850
N          5.32910       -9.78890        4.41480
Si         2.29690       -8.36530        1.80830
C          3.77330       -8.81140        0.85230
N          4.71540       -9.09260        0.24270
C          0.99900       -9.60810        1.55740
N          0.17000      -10.39930        1.39820
Si         1.57200       -6.36560        1.12870
Si         0.03700       -5.68420        2.59460
C         -0.82890       -4.23120        1.93840
N         -1.37900       -3.30370        1.51910
C         -1.14950       -7.02700        2.88060
N         -1.90370       -7.88480        3.06410
Si         1.04630       -5.15490        4.51430
C          1.27180       -3.35690        4.60790
N          1.41780       -2.21080        4.66510
C          0.03400       -5.71870        5.91050
N         -0.61050       -6.08060        6.80050
C          0.77790       -6.44690       -0.56480
S          1.99770       -6.95470       -1.82660
C          0.85650       -6.90510       -3.24420
H          4.78120       -6.72930        8.84340
H          6.56670       -6.75840        8.57900
H          5.65740       -5.21150        8.37390
H          3.79630       -4.87030        6.56040
H          2.98260       -6.39460        7.05110
H          0.41010       -5.43250       -0.82150
H         -0.09500       -7.13050       -0.52120
H          0.01960       -7.61350       -3.08650
H          0.46090       -5.87710       -3.37930
H          1.40650       -7.20110       -4.16070
