156
mol54-A-2
C          6.22950        1.52920        0.92280
S          4.46320        1.90240        1.14830
C          3.88380        0.50920        0.12580
Si         1.99540        0.37810       -0.01660
Si         1.01780        1.73670        1.59060
C          1.75510        3.46980        1.49630
C          1.02600        4.59200        1.07510
C          1.60970        5.86140        1.05230
C          2.92640        6.03420        1.47740
C          3.65580        4.93760        1.93530
C          3.07280        3.66780        1.95480
C          1.57300        1.32690        3.32830
C          1.13750        2.12940        4.39680
C          1.57840        1.87850        5.69930
C          2.48450        0.84480        5.94310
C          2.96030        0.07340        4.88160
C          2.51560        0.32350        3.58060
Si        -1.29260        1.56820        1.38780
C         -2.22950        0.89280        2.87850
C         -3.62260        1.09410        2.94680
C         -4.35980        0.64060        4.04400
C         -3.71590       -0.00260        5.10040
C         -2.33330       -0.17920        5.06440
C         -1.59600        0.27740        3.96850
C         -2.08960        3.25890        1.34080
C         -2.91690        3.65150        0.28240
C         -3.54960        4.89740        0.29600
C         -3.38130        5.75480        1.38440
C         -2.59530        5.35670        2.46740
C         -1.96610        4.10860        2.45350
Si         1.48470        1.15090       -2.12420
C          2.13790        2.87810       -2.45160
C          3.02160        3.50910       -1.56630
C          3.51770        4.78610       -1.84330
C          3.14610        5.44130       -3.01780
C          2.29530        4.80960       -3.92560
C          1.80710        3.52900       -3.65180
C          2.41790        0.16590       -3.41270
C          1.81390       -0.87870       -4.12180
C          2.52320       -1.58750       -5.09470
C          3.85280       -1.26110       -5.36560
C          4.47130       -0.22580       -4.66260
C          3.75880        0.48620       -3.69310
Si        -0.79840        1.14970       -2.39090
C         -1.32080        0.26120       -3.95740
C         -0.76520        0.64270       -5.19080
C         -1.16740        0.02090       -6.37590
C         -2.14900       -0.97060       -6.34640
C         -2.73120       -1.33520       -5.13190
C         -2.32020       -0.72170       -3.94530
C         -1.35190        2.91280       -2.66960
C         -0.76850        3.94300       -1.93060
C         -1.13540        5.27450       -2.13900
C         -2.10910        5.58600       -3.08930
C         -2.70530        4.56580       -3.83430
C         -2.32570        3.23500       -3.63150
Si        -1.77200        0.28850       -0.48760
Si        -1.00130       -1.86130       -0.19790
C         -1.81370       -2.74510        1.24300
C         -1.36460       -4.02310        1.61570
C         -1.96510       -4.70820        2.67530
C         -3.04300       -4.13820        3.35390
C         -3.52670       -2.88900        2.96350
C         -2.91940       -2.20060        1.90940
C         -1.54540       -2.93670       -1.62920
C         -2.84510       -3.47530       -1.63660
C         -3.26860       -4.29400       -2.68780
C         -2.39910       -4.58790       -3.73960
C         -1.10790       -4.05840       -3.74220
C         -0.68780       -3.23590       -2.69390
Si         1.27120       -1.80420        0.14290
C          2.18210       -2.97300       -1.00630
C          3.28730       -2.55030       -1.75790
C          3.98400       -3.45030       -2.56910
C          3.58510       -4.78560       -2.63610
C          2.49920       -5.22480       -1.87750
C          1.81020       -4.32740       -1.05720
C          1.62090       -2.48770        1.84670
C          0.77990       -2.15320        2.90910
C          0.99390       -2.67440        4.18710
C          2.07080       -3.53220        4.41620
C          2.92390       -3.87350        3.36410
C          2.69860       -3.35940        2.08290
C         -3.65530        0.13050       -0.66550
S         -4.36760        1.13330       -2.01040
C         -6.08000        0.60020       -1.70390
H          6.49420        1.57210       -0.15430
H          6.46080        0.52200        1.32770
H          6.83070        2.28310        1.47080
H          4.31860        0.61750       -0.88080
H          4.26820       -0.43140        0.56220
H          0.00810        4.51130        0.76750
H          1.03600        6.71350        0.71110
H          3.37720        7.01780        1.46160
H          4.67170        5.07160        2.28380
H          3.65120        2.84660        2.35280
H          0.45990        2.95020        4.22570
H          1.22410        2.49150        6.51770
H          2.82770        0.65070        6.95080
H          3.67500       -0.71850        5.06520
H          2.90290       -0.27330        2.77980
H         -4.14590        1.62370        2.16390
H         -5.43030        0.79610        4.07780
H         -4.28600       -0.35440        5.95030
H         -1.82890       -0.66420        5.89010
H         -0.53820        0.14590        3.99620
H         -3.06940        3.00510       -0.55800
H         -4.17120        5.19650       -0.53810
H         -3.87020        6.72020        1.39490
H         -2.48020        6.01100        3.32180
H         -1.38670        3.80830        3.31160
H          3.34490        3.01790       -0.67090
H          4.19650        5.26470       -1.14980
H          3.52770        6.43150       -3.23060
H          2.01600        5.30990       -4.84380
H          1.15660        3.06050       -4.37030
H          0.79790       -1.14910       -3.93030
H          2.04220       -2.39320       -5.63400
H          4.40440       -1.81270       -6.11580
H          5.50280        0.02750       -4.87000
H          4.25890        1.28970       -3.16980
H         -0.00950        1.40830       -5.24040
H         -0.72060        0.31170       -7.31770
H         -2.46400       -1.44980       -7.26410
H         -3.50270       -2.09360       -5.10880
H         -2.79450       -1.01460       -3.02720
H         -0.01410        3.70450       -1.20880
H         -0.66830        6.06100       -1.56080
H         -2.40080        6.61590       -3.24860
H         -3.46010        4.80600       -4.57170
H         -2.80260        2.46600       -4.22250
H         -0.53810       -4.48620        1.10430
H         -1.59630       -5.68280        2.96730
H         -3.51120       -4.66950        4.17220
H         -4.37760       -2.45630        3.47280
H         -3.32830       -1.25620        1.61240
H         -3.53550       -3.27100       -0.82970
H         -4.27090       -4.70220       -2.68500
H         -2.72690       -5.22130       -4.55360
H         -0.43290       -4.27980       -4.55880
H          0.30470       -2.84030       -2.71980
H          3.62440       -1.53130       -1.71760
H          4.83470       -3.11090       -3.14560
H          4.12180       -5.48070       -3.26850
H          2.19330       -6.26190       -1.92100
H          0.97870       -4.69180       -0.47800
H         -0.05240       -1.50300        2.73080
H          0.32810       -2.40880        4.99800
H          2.24370       -3.93240        5.40660
H          3.75920       -4.53890        3.54020
H          3.37390       -3.64090        1.28740
H         -3.90160       -0.93170       -0.85000
H         -4.13700        0.43020        0.27900
H         -6.75090        1.10640       -2.42760
H         -6.38740        0.87730       -0.67400
H         -6.16730       -0.49780       -1.84060
