24
mol56-E-2
C          5.79630        5.30020        1.43950
S          4.86800        4.65750        0.01030
C          6.32650        4.23250       -1.00350
Ge         5.80550        3.46800       -2.72290
Ge         7.44240        1.91420       -3.52720
Ge         6.56630        0.77220       -5.43900
Ge         3.68710        2.36580       -2.54080
Ge         2.88460        1.83130       -4.73130
Ge         4.69390        1.99720       -6.28910
Ge         5.31430        4.29770       -6.50290
Ge         5.59030        5.23800       -4.31890
C          4.13690        1.31780       -8.02640
S          3.59300       -0.41800       -7.86870
C          3.17960       -0.65080       -9.62750
H          6.55370        4.56340        1.77840
H          5.08740        5.48910        2.27140
H          6.28780        6.25690        1.17350
H          6.97590        5.11780       -1.16380
H          6.91410        3.46870       -0.45460
H          3.27740        1.92530       -8.37630
H          4.96560        1.43660       -8.75500
H          2.33820        0.01580       -9.90960
H          4.06020       -0.43140      -10.26430
H          2.87250       -1.70400       -9.79050
