108
mol58-C-2
C          0.24940       -0.87580        6.27970
S         -0.36870       -1.19580        4.59860
C          0.77090       -0.02740        3.79910
Ge         0.51720        0.02670        1.85940
Ge        -1.48770       -1.23930        1.49920
C         -1.09950       -3.14520        1.66160
C         -0.48350       -3.46800        3.01450
C         -2.80010       -0.68310        2.83710
C         -3.99370       -1.62520        2.87710
Ge        -2.33970       -0.82000       -0.69270
C         -2.92460       -2.49920       -1.50380
C         -4.19560       -3.02400       -0.85300
C         -3.85390        0.40680       -0.53990
C         -4.46710        0.71790       -1.89570
Ge         2.27520       -0.91030        0.50790
C          3.82200        0.28020        0.36720
C          4.51920        0.48760        1.70000
C          2.84380       -2.64000        1.22050
C          4.05090       -3.17330        0.46360
Ge         1.44540       -1.18070       -1.73380
C          2.89540       -0.55790       -2.90100
C          2.42950       -0.25570       -4.31600
C          1.01560       -3.07280       -2.01440
C          1.90840       -3.73410       -3.05480
Ge        -0.56880        0.12580       -2.00520
Ge        -0.14020        2.36000       -1.22580
C         -1.60330        3.58070       -1.66810
C         -1.81190        3.69720       -3.17160
C          1.49330        2.97750       -2.10370
C          1.70310        4.47570       -1.93340
Ge         0.14490        2.29650        1.16890
C          1.63940        3.44920        1.68360
C          1.91280        3.39060        3.17940
C         -1.47810        2.90000        2.07360
C         -1.59980        4.41730        2.07090
C         -1.14430        0.13700       -3.87060
S         -0.98740       -1.52590       -4.59280
C         -1.60340       -1.03140       -6.23180
H          1.32450       -1.14350        6.34770
H         -0.32130       -1.49770        6.99920
H          0.11070        0.19420        6.54030
H          1.82310       -0.30020        4.01620
H          0.58600        0.98500        4.20870
H         -2.03940       -3.72010        1.53760
H         -0.40230       -3.43800        0.85180
H          0.48900       -2.94770        3.12960
H         -1.16620       -3.15860        3.83340
H         -0.30820       -4.56160        3.09010
H         -3.14600        0.34280        2.59640
H         -2.31590       -0.66740        3.83460
H         -3.66650       -2.65610        3.12490
H         -4.51770       -1.62720        1.90120
H         -4.70660       -1.28470        3.65690
H         -3.10900       -2.33030       -2.58470
H         -2.12280       -3.25480       -1.38730
H         -4.50370       -3.96620       -1.35270
H         -4.01840       -3.23900        0.21940
H         -5.01910       -2.28740       -0.95340
H         -4.62390       -0.05370        0.11080
H         -3.51520        1.34550       -0.06400
H         -3.76760        1.32840       -2.49640
H         -4.71080       -0.21730       -2.44140
H         -5.40080        1.30140       -1.75380
H          3.49130        1.25820       -0.03050
H          4.54180       -0.16530       -0.35050
H          3.86570        1.06390        2.38060
H          5.45180        1.06850        1.54250
H          4.78180       -0.48680        2.16130
H          3.10730       -2.53000        2.29080
H          2.00790       -3.36190        1.14010
H          3.82640       -3.24750       -0.61840
H          4.92470       -2.50500        0.60930
H          4.31100       -4.18330        0.84400
H          3.69450       -1.32670       -2.92590
H          3.32760        0.36670       -2.47020
H          1.92710       -1.13210       -4.76680
H          1.74020        0.60910       -4.31110
H          3.30670        0.00680       -4.94360
H         -0.03700       -3.15610       -2.34310
H          1.11930       -3.61210       -1.05300
H          2.97790       -3.61980       -2.78860
H          1.67400       -4.81810       -3.10330
H          1.72400       -3.29800       -4.05610
H         -2.53660        3.22900       -1.18480
H         -1.35440        4.58410       -1.26740
H         -2.16110        2.73690       -3.59070
H         -0.87170        3.99410       -3.67940
H         -2.58450        4.46710       -3.37800
H          1.42400        2.74210       -3.18540
H          2.35720        2.43390       -1.67730
H          1.76130        4.74270       -0.86180
H          0.87630        5.04410       -2.40510
H          2.65500        4.77200       -2.42170
H          2.54800        3.14520        1.12570
H          1.38670        4.49370        1.41010
H          0.99180        3.61140        3.75710
H          2.29100        2.39130        3.46310
H          2.68660        4.14160        3.44310
H         -1.45810        2.53480        3.12180
H         -2.35610        2.46000        1.56460
H         -1.56790        4.80940        1.03610
H         -2.56640        4.71070        2.53120
H         -0.77900        4.87500        2.65960
H         -0.53470        0.86710       -4.43890
H         -2.20650        0.43920       -3.92040
H         -0.93410       -0.26440       -6.67430
H         -2.63390       -0.62790       -6.14650
H         -1.61900       -1.92000       -6.89530
