156
mol54-C-2
C          1.61440       -5.51350       -3.04570
S          2.02220       -3.86040       -2.40450
C          0.31340       -3.46630       -1.90780
Si         0.10480       -1.75090       -1.12220
Si         2.19630       -0.90950       -0.57260
C          3.34280       -1.02260       -2.06570
C          3.81740        0.10290       -2.75560
C          4.69080       -0.03290       -3.83800
C          5.12650       -1.29760       -4.23150
C          4.69610       -2.42630       -3.53490
C          3.82010       -2.29020       -2.45460
C          3.16080       -2.03730        0.56480
C          2.64950       -3.27190        0.98100
C          3.41140       -4.12540        1.78370
C          4.70630       -3.76230        2.15720
C          5.24510       -2.55390        1.71130
C          4.48280       -1.70340        0.90560
Si         1.91520        1.19500        0.37560
C          3.05390        2.44840       -0.41690
C          4.44490        2.27660       -0.31300
C          5.31990        3.22500       -0.85010
C          4.81490        4.37090       -1.46710
C          3.43560        4.57430       -1.53210
C          2.56220        3.62310       -0.99760
C          2.50550        1.41180        2.15340
C          2.86290        0.33600        2.97990
C          3.32430        0.55160        4.28120
C          3.46230        1.85060        4.76870
C          3.14820        2.93480        3.95010
C          2.68370        2.71870        2.64990
Si        -0.87130       -0.44660       -2.74880
C         -2.47440       -1.22490       -3.31960
C         -3.71580       -0.79210       -2.83970
C         -4.90170       -1.37340       -3.29540
C         -4.85780       -2.40340       -4.23610
C         -3.62710       -2.85050       -4.72000
C         -2.44130       -2.26420       -4.26740
C          0.10330       -0.41830       -4.35080
C          1.18490       -1.28190       -4.56770
C          1.88050       -1.26290       -5.77990
C          1.49230       -0.38860       -6.79560
C          0.39440        0.45150       -6.60620
C         -0.30590        0.42520       -5.39720
Si        -1.08160        1.70260       -1.96110
C         -0.05660        2.82360       -3.04990
C         -0.52900        4.08220       -3.46210
C          0.25030        4.89140       -4.29530
C          1.50020        4.44790       -4.73330
C          1.97190        3.19600       -4.33530
C          1.19610        2.39640       -3.49300
C         -2.82810        2.35510       -2.16140
C         -3.44180        2.32100       -3.42530
C         -4.72810        2.83640       -3.60650
C         -5.40590        3.41640       -2.53350
C         -4.79420        3.48530       -1.28150
C         -3.51260        2.95900       -1.09760
Si        -0.32520        1.77760        0.21480
Si        -1.61020        0.33830        1.47050
C         -1.19990        0.39280        3.29970
C         -0.35130        1.37170        3.83310
C         -0.08050        1.41050        5.20380
C         -0.66770        0.47790        6.05960
C         -1.54300       -0.48010        5.54650
C         -1.82010       -0.51220        4.17710
C         -3.39030        0.91450        1.48650
C         -4.35530        0.34990        0.64470
C         -5.68360        0.78110        0.68800
C         -6.06120        1.79090        1.57400
C         -5.10910        2.36850        2.41600
C         -3.78150        1.93240        2.37550
Si        -1.30800       -1.80550        0.69790
C         -0.56040       -2.82050        2.07750
C         -0.99020       -4.13300        2.34170
C         -0.42840       -4.86220        3.39470
C          0.55690       -4.28510        4.19950
C          0.98230       -2.97960        3.94850
C          0.42770       -2.25950        2.88800
C         -2.93950       -2.65970        0.34430
C         -3.92320       -2.72090        1.34620
C         -5.13130       -3.38530        1.11830
C         -5.36030       -4.01950       -0.10340
C         -4.37820       -3.99310       -1.09420
C         -3.17480       -3.31860       -0.87050
C         -0.57790        3.49040        0.99320
S         -0.84860        4.82940       -0.21340
C         -1.01420        6.13330        1.04440
H          1.20420       -6.14720       -2.23190
H          0.87420       -5.43170       -3.86870
H          2.53760       -5.98650       -3.43820
H         -0.32940       -3.53920       -2.79980
H         -0.02670       -4.22780       -1.18140
H          3.53260        1.09070       -2.47250
H          5.03560        0.84610       -4.36720
H          5.80460       -1.40210       -5.06850
H          5.04740       -3.40760       -3.82600
H          3.53740       -3.18030       -1.91140
H          1.66250       -3.57610        0.69710
H          2.99660       -5.06870        2.11460
H          5.29620       -4.42230        2.77970
H          6.25640       -2.27980        1.98220
H          4.92700       -0.78850        0.54830
H          4.85520        1.41260        0.18450
H          6.38950        3.07510       -0.77980
H          5.49150        5.10660       -1.88190
H          3.04120        5.46930       -1.99570
H          1.50790        3.80540       -1.04850
H          2.79950       -0.67250        2.63960
H          3.58210       -0.29140        4.90920
H          3.82160        2.01700        5.77590
H          3.27240        3.94450        4.31910
H          2.48760        3.58010        2.02810
H         -3.77510       -0.00700       -2.11710
H         -5.85380       -1.02800       -2.91400
H         -5.77570       -2.85730       -4.58610
H         -3.59090       -3.65020       -5.44820
H         -1.50210       -2.62310       -4.66540
H          1.48680       -1.98230       -3.81560
H          2.71680       -1.93210       -5.93400
H          2.03330       -0.37160       -7.73280
H          0.08280        1.12120       -7.39730
H         -1.15280        1.07890       -5.27730
H         -1.49270        4.45010       -3.13910
H         -0.11700        5.86170       -4.60340
H          2.10180        5.07290       -5.38030
H          2.93850        2.84610       -4.67380
H          1.55330        1.43150       -3.19560
H         -2.93770        1.88290       -4.27000
H         -5.19700        2.78970       -4.58090
H         -6.40040        3.81940       -2.67400
H         -5.31250        3.94760       -0.45160
H         -3.06240        3.03680       -0.12550
H          0.09100        2.11660        3.20300
H          0.57960        2.16910        5.60330
H         -0.45520        0.50600        7.12040
H         -2.01030       -1.19640        6.20980
H         -2.50290       -1.25730        3.80650
H         -4.09010       -0.42280       -0.04430
H         -6.41800        0.33490        0.02990
H         -7.08890        2.12880        1.60500
H         -5.39970        3.15310        3.10250
H         -3.06610        2.39020        3.04500
H         -1.75140       -4.60390        1.73570
H         -0.75940       -5.87420        3.58820
H          0.98930       -4.84850        5.01590
H          1.74340       -2.52660        4.57040
H          0.74660       -1.25420        2.70150
H         -3.76860       -2.24340        2.29890
H         -5.88810       -3.41180        1.89160
H         -6.29400       -4.53750       -0.27920
H         -4.54810       -4.49670       -2.03690
H         -2.43290       -3.32500       -1.64710
H          0.30430        3.74840        1.60070
H         -1.45260        3.44270        1.66810
H         -0.08520        6.20160        1.64800
H         -1.87840        5.91650        1.70640
H         -1.18540        7.10480        0.53720
