72
mol57-C-2
C         -2.25230       -5.31110       -0.76080
S         -0.63950       -5.14020        0.06720
C         -1.10750       -3.68850        1.06570
Ge         0.37230       -3.08940        2.19030
Ge         2.28670       -4.47010        1.78170
C          2.51850       -4.71940       -0.13100
C          2.07220       -6.21390        2.60830
Ge         4.23300       -3.41960        2.68660
C          5.28680       -2.69560        1.22410
C          5.30680       -4.72800        3.63930
Ge        -0.08140       -3.07100        4.55030
C         -0.73670       -4.78430        5.19400
C         -1.40470       -1.71170        4.96450
Ge         1.94340       -2.57080        5.71640
C          1.59100       -1.27740        7.12230
C          2.63510       -4.19470        6.52560
Ge         3.55830       -1.68680        4.19290
Ge         2.54670        0.08560        2.94880
C          3.87340        1.02530        1.88460
C          1.71400        1.35480        4.15920
Ge         0.88690       -0.85160        1.50930
C          1.55110       -0.86040       -0.31520
C         -0.72010        0.23800        1.57500
C          5.07110       -1.03810        5.22580
S          6.37620       -0.44780        4.10390
C          7.51130        0.03030        5.44330
H         -2.18520       -6.11450       -1.52260
H         -3.03260       -5.58210       -0.01970
H         -2.52710       -4.36240       -1.26290
H         -1.94490       -3.98330        1.72990
H         -1.46010       -2.84790        0.43300
H          1.61340       -5.20250       -0.55210
H          3.40180       -5.36510       -0.31200
H          2.67500       -3.73750       -0.61910
H          1.96290       -6.09420        3.70320
H          1.17550       -6.71480        2.19200
H          2.96940       -6.83050        2.39640
H          4.66360       -2.00250        0.62730
H          5.63010       -3.52710        0.57550
H          6.16650       -2.15560        1.62730
H          5.65170       -5.50700        2.92900
H          4.69940       -5.20010        4.43610
H          6.18420       -4.22270        4.09230
H         -0.10020       -5.60170        4.80310
H         -0.70260       -4.79220        6.30250
H         -1.78400       -4.93320        4.86480
H         -1.70760       -1.80710        6.02730
H         -0.96790       -0.70840        4.79920
H         -2.29100       -1.84560        4.31140
H          0.88120       -1.71510        7.85360
H          2.54170       -1.02220        7.63340
H          1.14870       -0.36120        6.68460
H          3.65040       -4.00260        6.92860
H          1.96110       -4.51130        7.34760
H          2.68170       -4.99580        5.76260
H          3.36410        1.77150        1.24120
H          4.58570        1.54450        2.55740
H          4.42240        0.30420        1.24830
H          1.37930        2.24320        3.58580
H          0.83810        0.88290        4.64420
H          2.44780        1.66360        4.93150
H          0.84840       -1.42580       -0.96080
H          1.63520        0.18360       -0.68000
H          2.54940       -1.33800       -0.34250
H         -1.09430        0.28960        2.61600
H         -1.49750       -0.21160        0.92410
H         -0.48380        1.26130        1.21850
H          4.72620       -0.20990        5.87900
H          5.45610       -1.87080        5.85030
H          8.43950        0.44510        4.99990
H          7.04110        0.80580        6.08320
H          7.77160       -0.85670        6.05750
