108
mol58-B-2
C         -6.02940        0.14750       -3.14060
S         -4.75530       -0.48330       -2.00520
C         -3.58650        0.87240       -2.33010
Ge        -1.96370        0.62600       -1.27760
Ge        -2.48090        0.41320        1.06790
C         -3.67920        1.84240        1.66280
C         -4.23010        1.57430        3.05570
C         -3.32740       -1.30910        1.43300
C         -4.63840       -1.45450        0.67540
Ge        -0.41740        0.56430        2.28040
C         -0.31470        2.36290        3.03590
C          0.94260        2.55150        3.87100
C         -0.34570       -0.76520        3.71120
C         -1.33770       -0.45410        4.82180
Ge        -0.86280       -1.38830       -1.99340
C         -0.05660       -1.17990       -3.76050
C         -1.10450       -0.90640       -4.82860
C         -2.18750       -2.82500       -2.03000
C         -1.62880       -4.09270       -2.65830
Ge         0.90610       -1.88760       -0.45310
C          2.46850       -2.51280       -1.45320
C          2.26220       -3.91650       -2.00350
C          0.33110       -3.30360        0.76370
C          1.42020       -3.64790        1.76820
Ge         1.40030        0.13280        0.76670
Ge         1.64810        1.97650       -0.75490
C          2.82890        1.36310       -2.19400
C          4.08600        2.20630       -2.34090
C          2.36360        3.48470        0.27040
C          2.43070        4.77020       -0.54390
Ge        -0.52110        2.51430       -1.63710
C         -0.42000        2.80910       -3.57120
C          0.58450        3.88970       -3.94970
C         -1.30030        4.01430       -0.64490
C         -1.63450        5.20870       -1.52500
C          3.04910       -0.05620        1.79040
S          4.46350       -0.26640        0.66570
C          5.69330       -0.39360        2.00070
H         -6.89960       -0.54010       -3.12550
H         -6.36270        1.15580       -2.81780
H         -5.62840        0.19690       -4.17430
H         -4.05840        1.83160       -2.04470
H         -3.32780        0.90340       -3.40620
H         -4.52430        1.92550        0.95040
H         -3.12380        2.79990        1.68320
H         -4.80570        0.62640        3.07430
H         -4.90970        2.40190        3.34850
H         -3.40520        1.52390        3.79330
H         -3.52000       -1.39570        2.52110
H         -2.64160       -2.12240        1.13900
H         -5.13460       -2.40170        0.97370
H         -5.31900       -0.60830        0.90410
H         -4.44680       -1.49050       -0.41450
H         -0.33740        3.10240        2.21230
H         -1.20400        2.53280        3.67570
H          0.92500        3.55630        4.34260
H          0.99890        1.78450        4.67100
H          1.84290        2.48360        3.23190
H         -0.57390       -1.76420        3.29190
H          0.68300       -0.78100        4.12820
H         -1.22880       -1.20340        5.63360
H         -2.37460       -0.50690        4.43590
H         -1.14880        0.55380        5.24510
H          0.48800       -2.11100       -4.01670
H          0.67650       -0.35090       -3.72760
H         -0.61570       -0.87080       -5.82460
H         -1.87140       -1.70840       -4.83770
H         -1.59390        0.06890       -4.64690
H         -2.51240       -3.04720       -0.99500
H         -3.06720       -2.48030       -2.61270
H         -0.79540       -4.48940       -2.04590
H         -2.42620       -4.86370       -2.70380
H         -1.27140       -3.89440       -3.68950
H          2.65720       -1.82730       -2.30180
H          3.35040       -2.51450       -0.78200
H          1.40710       -3.93260       -2.70760
H          3.17290       -4.23390       -2.55340
H          2.08170       -4.63790       -1.18070
H         -0.57480       -2.97610        1.30260
H          0.07530       -4.20690        0.17460
H          2.36330       -3.91480        1.24750
H          1.09570       -4.51300        2.38340
H          1.60130       -2.78930        2.44350
H          3.13420        0.32840       -1.95990
H          2.27360        1.35390       -3.15310
H          4.57990        2.35060       -1.35780
H          3.84140        3.18520       -2.79720
H          4.79770        1.68790       -3.01720
H          3.37260        3.22490        0.65330
H          1.69820        3.65460        1.13780
H          3.25810        4.73060       -1.27630
H          2.62090        5.62660        0.13660
H          1.47730        4.95050       -1.07700
H         -1.42630        3.07460       -3.95700
H         -0.10760        1.85970       -4.04560
H          1.54860        3.73290       -3.42840
H          0.76650        3.85500       -5.04430
H          0.19450        4.89460       -3.70380
H         -0.60680        4.32870        0.16030
H         -2.23540        3.65860       -0.17820
H         -2.20780        4.88940       -2.42000
H         -0.70830        5.73470       -1.82740
H         -2.25650        5.92550       -0.94880
H          3.20290        0.85670        2.39660
H          2.96630       -0.92890        2.46660
H          5.69640        0.53630        2.60650
H          6.69870       -0.53430        1.55380
H          5.46350       -1.26440        2.64930
