48
mol51-C-1
C         -2.99970        6.51530        6.04690
S         -3.65810        5.17030        5.01300
C         -2.23090        5.14720        3.88180
Si        -2.47650        3.83940        2.57110
Si        -4.31800        4.25120        1.37350
O         -4.09190        5.66010        0.41950
O         -5.63390        4.49820        2.44650
Si        -4.75780        2.49120        0.06130
O         -5.15580        3.03150       -1.51880
O         -6.08280        1.61850        0.71490
Si        -0.68650        3.69730        1.23660
O          0.62340        3.04940        2.13600
O         -0.25390        5.24850        0.64220
Si        -1.14050        2.32630       -0.47270
O         -1.37650        3.22760       -1.91440
O          0.18210        1.25410       -0.68580
Si        -2.97650        1.13950       -0.00750
Si        -2.68930        0.24110        2.01960
O         -1.16710       -0.54940        2.07580
O         -3.94000       -0.88970        2.33930
Si        -2.74210        1.86040        3.56340
O         -1.47680        1.61880        4.69760
O         -4.25660        1.84130        4.37090
C         -3.17730       -0.19420       -1.30450
S         -4.61610       -1.25090       -0.91580
C         -4.44820       -2.35240       -2.35640
H         -2.03280        6.21070        6.49900
H         -2.85710        7.43110        5.43620
H         -3.72260        6.73430        6.85910
H         -2.12420        6.13330        3.38420
H         -1.30450        4.91340        4.44650
H         -3.47780        5.38090       -0.30410
H         -6.40000        4.71520        1.85800
H         -4.31300        3.40080       -1.88210
H         -6.85310        2.23550        0.63660
H          0.73790        3.67290        2.89670
H         -1.07140        5.58930        0.20100
H         -1.94590        3.99110       -1.64720
H         -0.06030        0.71000       -1.47680
H         -1.20200       -1.21280        1.34160
H         -3.70480       -1.28180        3.21760
H         -1.63910        0.71440        5.06680
H         -4.30870        0.94490        4.78830
H         -3.25760        0.27970       -2.30480
H         -2.26610       -0.82620       -1.29340
H         -5.27760       -3.08850       -2.34700
H         -4.50020       -1.76730       -3.29630
H         -3.48320       -2.89820       -2.30630
