108
mol58-E-1
C         -3.15010       -4.18690        2.87220
S         -2.38310       -2.59560        2.43610
C         -1.39150       -3.28060        1.07310
Ge        -0.32790       -1.87800        0.23400
Ge         1.35000       -2.92290       -1.14190
C          2.69950       -3.69730        0.05120
C          2.90950       -5.18640       -0.16740
C          0.37930       -4.22890       -2.23850
C          1.28590       -5.07790       -3.12250
Ge         2.37590       -1.25260       -2.53550
C          1.60880       -1.45920       -4.32450
C          2.25330       -0.53270       -5.34020
C          4.31120       -1.52970       -2.59060
C          4.66240       -2.86040       -3.23690
Ge        -1.74080       -0.49430       -1.14070
C         -2.35190       -1.56880       -2.65470
C         -3.51660       -0.91580       -3.38700
C         -3.30410        0.16350       -0.16420
C         -4.19130       -0.97250        0.32660
Ge        -0.44530        1.38290       -1.91740
C         -0.85480        2.98160       -0.87160
C         -2.15690        3.63280       -1.31590
C         -0.84620        1.72050       -3.80240
C          0.00560        2.84600       -4.37040
Ge         1.88450        0.90780       -1.58340
Ge         2.33130        0.85640        0.77640
C          4.10290        0.10250        1.09590
C          5.17800        0.89300        0.36540
C          2.23280        2.69070        1.44550
C          2.77270        2.80090        2.86340
Ge         0.71630       -0.50250        1.89910
C          1.60620       -1.61220        3.24100
C          2.05490       -0.79120        4.44090
C         -0.58800        0.66340        2.76860
C         -1.64260       -0.13840        3.51450
C          2.94370        2.41970       -2.23330
S          3.95300        1.96980       -3.67610
C          4.68730        3.62410       -3.86240
H         -3.84200       -4.03300        3.72530
H         -2.36940       -4.91760        3.17000
H         -3.72570       -4.58230        2.00950
H         -0.70380       -4.06080        1.46050
H         -2.07560       -3.72140        0.32450
H          2.36600       -3.54310        1.09240
H          3.66210       -3.16680       -0.08780
H          3.57410       -5.58410        0.62810
H          3.40130       -5.36590       -1.14380
H          1.94150       -5.72710       -0.11780
H         -0.21960       -4.88760       -1.57530
H         -0.32080       -3.66710       -2.88660
H          2.13330       -4.48610       -3.51780
H          0.70100       -5.47150       -3.98020
H          1.67410       -5.94920       -2.55970
H          1.74950       -2.50570       -4.65800
H          0.52370       -1.25510       -4.27790
H          3.35560       -0.66110       -5.34280
H          1.99480        0.51700       -5.10960
H          1.86620       -0.76880       -6.35360
H          4.78260       -0.71190       -3.16990
H          4.71290       -1.50460       -1.55840
H          5.76620       -2.97180       -3.27850
H          4.26220       -2.90740       -4.27110
H          4.24790       -3.69650       -2.64080
H         -1.51130       -1.69960       -3.36030
H         -2.66350       -2.56680       -2.28150
H         -3.78590       -1.52970       -4.27190
H         -3.24060        0.09820       -3.73340
H         -4.40540       -0.84430       -2.72900
H         -3.89690        0.80390       -0.84800
H         -2.97300        0.77920        0.69520
H         -5.11810       -0.55140        0.76930
H         -3.67450       -1.56010        1.10490
H         -4.47190       -1.64700       -0.50740
H         -0.93040        2.70070        0.19560
H         -0.02250        3.70680       -0.98860
H         -2.38620        4.49100       -0.65000
H         -2.06900        4.01030       -2.35480
H         -2.99350        2.90970       -1.26090
H         -1.91450        2.00500       -3.88830
H         -0.67890        0.79390       -4.38720
H         -0.08620        3.76110       -3.74990
H         -0.33180        3.08030       -5.40170
H          1.06720        2.54030       -4.41550
H          4.31110        0.11360        2.18510
H          4.11140       -0.94970        0.74960
H          6.17500        0.46370        0.59730
H          5.01870        0.83880       -0.73080
H          5.16320        1.95510        0.68810
H          2.82400        3.35090        0.77890
H          1.17560        3.02460        1.42610
H          3.83140        2.47110        2.90300
H          2.72020        3.85840        3.19700
H          2.16640        2.18550        3.55630
H          2.49780       -2.08570        2.78660
H          0.90400       -2.40340        3.57590
H          1.18900       -0.29160        4.92120
H          2.53260       -1.46020        5.18700
H          2.79750       -0.03010        4.12860
H         -1.07530        1.29600        2.00440
H         -0.06060        1.32670        3.48300
H         -1.16850       -0.82780        4.24350
H         -2.25200       -0.72090        2.79940
H         -2.31470        0.55410        4.06310
H          2.25970        3.25530       -2.48340
H          3.61600        2.75710       -1.42010
H          5.24680        3.89920       -2.94400
H          5.38940        3.61340       -4.72100
H          3.89260        4.37390       -4.05770
