48
mol51-B-2
C          5.51870        5.28130        4.85450
S          4.15080        4.10890        5.11030
C          4.81360        2.86200        3.96000
Si         3.67370        1.38310        3.88940
Si         3.29690        0.55780        5.93370
O          2.39000        1.69510        6.84570
O          4.78650        0.23570        6.72330
Si         2.13090       -1.34340        5.77100
O          3.14800       -2.68190        6.11770
O          0.83280       -1.30330        6.89220
Si         1.72140        2.01860        3.01760
O          1.94500        2.39130        1.35730
O          1.14260        3.40380        3.84940
Si         0.23880        0.35780        3.22180
O         -0.63370        0.17770        1.75490
O         -0.85050        0.72890        4.49470
Si         1.30700       -1.54250        3.70400
Si         2.98780       -1.80820        2.25310
O          2.37040       -1.69380        0.65580
O          3.70870       -3.34870        2.48390
Si         4.52450       -0.21640        2.58140
O          5.90930       -0.89920        3.33120
O          4.96870        0.46090        1.06880
C          0.09390       -2.96150        3.58230
S          0.93060       -4.54690        3.93540
C         -0.53980       -5.59930        3.71790
H          6.48100        4.81560        5.15280
H          5.34590        6.18090        5.47990
H          5.56400        5.58790        3.78870
H          4.90110        3.29270        2.94110
H          5.81180        2.52260        4.30650
H          2.89750        2.54200        6.77020
H          5.11100        1.12180        7.02290
H          3.83740       -2.66590        5.40750
H          1.26940       -1.27490        7.78040
H          1.05570        2.69620        1.04660
H          1.83190        4.09710        3.69220
H          0.05480       -0.04000        1.07750
H         -1.44110       -0.06340        4.55890
H          3.16110       -1.80790        0.07090
H          4.45490       -3.37790        1.83360
H          5.58420       -1.23510        4.20380
H          5.64900        1.14530        1.29070
H         -0.75960       -2.77280        4.26590
H         -0.29520       -2.99340        2.54420
H         -1.34260       -5.28920        4.41640
H         -0.26550       -6.65220        3.93310
H         -0.90440       -5.53010        2.67200
