156
mol55-C-2
C          5.65040       -3.40500       -1.40340
S          4.05440       -3.37910       -0.52960
C          3.65070       -1.66300       -1.00040
Si         1.98910       -0.97040       -0.36010
Si         0.41980       -0.74080       -2.13170
C         -0.06360       -2.38800       -2.97190
C         -1.09310       -2.40850       -3.94440
F         -1.81480       -1.30510       -4.22170
C         -1.40070       -3.57560       -4.65000
F         -2.42400       -3.57850       -5.54050
C         -0.64160       -4.72630       -4.46450
F         -0.92760       -5.85160       -5.16550
C          0.44030       -4.70390       -3.59000
F          1.22980       -5.80050       -3.46930
C          0.73430       -3.54740       -2.85880
F          1.83790       -3.56560       -2.09320
C          1.15080        0.17590       -3.65970
C          1.57550       -0.50240       -4.83780
F          1.63640       -1.85050       -4.91900
C          2.00360        0.20930       -5.96470
F          2.40340       -0.45970       -7.07520
C          2.02740        1.60000       -5.95260
F          2.43810        2.28500       -7.04870
C          1.64950        2.28290       -4.80300
F          1.69310        3.63860       -4.77640
C          1.23720        1.57600       -3.67060
F          0.94570        2.27210       -2.57090
Si        -1.45530        0.38240       -1.18010
C         -3.17840       -0.33520       -1.60360
C         -4.32910        0.49450       -1.67110
F         -4.30600        1.78550       -1.27030
C         -5.55560       -0.01190       -2.11580
F         -6.63760        0.80310       -2.18870
C         -5.67450       -1.35160       -2.47440
F         -6.86460       -1.83930       -2.90470
C         -4.58010       -2.19960       -2.33770
F         -4.71110       -3.52210       -2.61020
C         -3.35920       -1.70050       -1.87520
F         -2.39200       -2.57800       -1.59120
C         -1.69060        2.08290       -2.01830
C         -1.76450        2.18290       -3.42710
F         -1.61000        1.10080       -4.21400
C         -1.98910        3.41280       -4.05400
F         -2.00790        3.48910       -5.40810
C         -2.21400        4.55610       -3.29260
F         -2.44820        5.74520       -3.90140
C         -2.24160        4.46400       -1.90420
F         -2.54130        5.55890       -1.16160
C         -1.99510        3.23890       -1.27530
F         -2.13810        3.17770        0.05600
Si         1.23020       -2.56050        1.23530
C          2.42300       -2.92390        2.69880
C          2.01020       -3.77200        3.75500
F          0.75920       -4.26100        3.81060
C          2.87550       -4.10860        4.80040
F          2.43250       -4.88090        5.82400
C          4.19460       -3.67050        4.78600
F          5.03820       -4.01340        5.79110
C          4.65610       -2.91720        3.71270
F          5.96460       -2.56410        3.65330
C          3.78710       -2.55670        2.67650
F          4.32500       -1.93490        1.61730
C          1.25560       -4.31690        0.47130
C          2.41140       -5.14000        0.53570
F          3.60370       -4.67010        0.96500
C          2.37090       -6.47160        0.10690
F          3.48170       -7.24510        0.19590
C          1.19880       -7.00440       -0.42190
F          1.16330       -8.29500       -0.83750
C          0.08190       -6.18990       -0.57560
F         -1.03560       -6.67920       -1.16920
C          0.12600       -4.85440       -0.16530
F         -0.89870       -4.06390       -0.49840
Si        -0.91480       -1.80570        1.98850
C         -2.31610       -3.04070        1.53290
C         -3.57690       -2.61730        1.05650
F         -3.86400       -1.31670        0.90320
C         -4.61200       -3.53020        0.82310
F         -5.81690       -3.08990        0.38200
C         -4.42540       -4.88380        1.07870
F         -5.42870       -5.76630        0.84620
C         -3.22060       -5.32120        1.61660
F         -3.04970       -6.63480        1.90860
C         -2.19240       -4.40940        1.87490
F         -1.06830       -4.89190        2.43230
C         -1.17480       -1.84630        3.88580
C         -0.09760       -1.70960        4.77530
F          1.08710       -1.27500        4.33570
C         -0.25340       -1.90440        6.15070
F          0.81580       -1.78390        6.97680
C         -1.51170       -2.17210        6.67950
F         -1.66700       -2.34190        8.01600
C         -2.61870       -2.20670        5.83640
F         -3.85590       -2.40100        6.35760
C         -2.46230       -2.03070        4.45680
F         -3.58900       -1.99900        3.71110
Si        -1.17640        0.41450        1.18050
Si         0.60350        1.79940        1.93390
C          0.23710        3.67590        1.70040
C         -0.16570        4.52380        2.77150
F         -0.46450        4.04960        4.00180
C         -0.32120        5.90190        2.58070
F         -0.70590        6.68870        3.61680
C         -0.08900        6.47100        1.33300
F         -0.23590        7.80740        1.15430
C          0.27220        5.65900        0.26460
F          0.47700        6.20430       -0.96050
C          0.41240        4.28090        0.44710
F          0.69770        3.53490       -0.62110
C          0.86920        1.77790        3.82630
C          1.98330        2.44670        4.39010
F          2.92340        3.01720        3.61170
C          2.15030        2.53620        5.77530
F          3.25210        3.14010        6.28670
C          1.17560        2.03480        6.63170
F          1.32870        2.14150        7.97510
C          0.02220        1.46400        6.10320
F         -0.96460        1.04840        6.93590
C         -0.13660        1.34470        4.71780
F         -1.30610        0.85830        4.27040
Si         2.52990        1.06980        0.73410
C          4.12850        0.83240        1.76000
C          5.41230        1.02350        1.18390
F          5.58160        1.20440       -0.14520
C          6.56760        0.98420        1.97290
F          7.78240        1.18700        1.40440
C          6.47790        0.72780        3.33810
F          7.59920        0.69020        4.10000
C          5.23750        0.45700        3.90680
F          5.15280        0.12870        5.22030
C          4.08430        0.47640        3.11700
F          2.94540        0.03870        3.66230
C          3.17110        2.47680       -0.38770
C          3.59520        2.23640       -1.70810
F          3.56850        0.99760       -2.21960
C          4.13520        3.25820       -2.49630
F          4.54330        2.99360       -3.76260
C          4.28690        4.53930       -1.97400
F          4.80570        5.53050       -2.74040
C          3.94480        4.78670       -0.64770
F          4.13490        6.02210       -0.12080
C          3.42560        3.76060        0.14840
F          3.16660        4.04320        1.43950
C         -2.85140        1.00520        1.88500
S         -2.86210        2.63610        2.70340
C         -4.63460        2.58910        3.11260
H          5.49430       -3.23010       -2.48820
H          6.32440       -2.62620       -0.98960
H          6.12210       -4.39900       -1.26400
H          4.46290       -1.01480       -0.62170
H          3.64390       -1.61630       -2.10450
H         -3.58130        1.04670        1.05630
H         -3.19580        0.25960        2.62570
H         -4.90720        3.52330        3.64470
H         -4.85080        1.72340        3.77280
H         -5.23860        2.51490        2.18440
