156
mol54-A-1
C          6.40390        0.85010       -0.60080
S          4.75030        0.78640       -1.35680
C          3.87210        0.55200        0.22300
Si         1.98670        0.40920        0.05410
Si         0.97840        1.75680        1.65160
C          1.70570        3.49490        1.57230
C          0.97530        4.61370        1.14430
C          1.55120        5.88680        1.13320
C          2.86080        6.06680        1.57690
C          3.59080        4.97350        2.04170
C          3.01570        3.69990        2.04950
C          1.51220        1.34560        3.39560
C          1.05690        2.14220        4.46030
C          1.48140        1.89030        5.76800
C          2.39070        0.86170        6.02130
C          2.88600        0.09650        4.96430
C          2.45760        0.34750        3.65800
Si        -1.32790        1.57420        1.41640
C         -2.28090        0.88860        2.89220
C         -3.67600        1.08080        2.94190
C         -4.42540        0.61940        4.02740
C         -3.79200       -0.02270        5.09080
C         -2.40790       -0.19040        5.07340
C         -1.65850        0.27400        3.98910
C         -2.13490        3.26000        1.36330
C         -2.95010        3.65040        0.29470
C         -3.59100        4.89220        0.30300
C         -3.44310        5.74740        1.39610
C         -2.66960        5.35130        2.48860
C         -2.03230        4.10720        2.47990
Si         1.50010        1.18490       -2.05810
C          2.14670        2.91710       -2.37160
C          3.01400        3.55120       -1.47240
C          3.50570        4.83220       -1.73890
C          3.14620        5.48840       -2.91660
C          2.31200        4.85390       -3.83780
C          1.82830        3.56950       -3.57440
C          2.45730        0.20960       -3.33640
C          1.86980       -0.83670       -4.05670
C          2.59700       -1.53820       -5.02170
C          3.92810       -1.20260       -5.27340
C          4.53020       -0.16530       -4.55890
C          3.79980        0.53930       -3.59740
Si        -0.77900        1.16990       -2.35630
C         -1.27410        0.28270       -3.93230
C         -0.70400        0.67130       -5.15680
C         -1.08580        0.05040       -6.34910
C         -2.06140       -0.94740       -6.33590
C         -2.65790       -1.31930       -5.13060
C         -2.26720       -0.70660       -3.93680
C         -1.33990        2.93030       -2.63760
C         -0.77340        3.96200       -1.88770
C         -1.14590        5.29170       -2.09740
C         -2.10840        5.59980       -3.06010
C         -2.68770        4.57800       -3.81620
C         -2.30250        3.24910       -3.61190
Si        -1.77320        0.29700       -0.46900
Si        -0.99280       -1.84870       -0.17480
C         -1.81930       -2.74180        1.25230
C         -1.36710       -4.01800        1.62750
C         -1.97790       -4.71000        2.67680
C         -3.06860       -4.14890        3.34210
C         -3.55480       -2.90170        2.94850
C         -2.93750       -2.20640        1.90490
C         -1.51030       -2.92340       -1.61640
C         -2.80620       -3.47020       -1.64330
C         -3.21000       -4.28850       -2.70250
C         -2.32420       -4.57390       -3.74310
C         -1.03650       -4.03610       -3.72640
C         -0.63610       -3.21400       -2.67010
Si         1.27440       -1.77810        0.19750
C          2.20850       -2.93770       -0.94240
C          3.32120       -2.50580       -1.67750
C          4.03480       -3.39900       -2.48150
C          3.64530       -4.73660       -2.55770
C          2.55200       -5.18490       -1.81540
C          1.84600       -4.29430       -1.00220
C          1.60500       -2.46430        1.90400
C          0.74730       -2.13830        2.95570
C          0.94700       -2.66180        4.23500
C          2.02610       -3.51340        4.47650
C          2.89580       -3.84620        3.43540
C          2.68480       -3.32990        2.15260
C         -3.65290        0.12750       -0.67330
S         -4.35300        1.12970       -2.02510
C         -6.06590        0.58480       -1.74370
H          6.61410       -0.09740       -0.06230
H          6.46820        1.70570        0.10320
H          7.16130        0.98490       -1.39980
H          4.26500       -0.35870        0.70290
H          4.10050        1.40910        0.88330
H         -0.03760        4.52740        0.82240
H          0.97670        6.73620        0.78640
H          3.30540        7.05330        1.57000
H          4.60100        5.11300        2.40450
H          3.59380        2.88130        2.45310
H          0.37650        2.95910        4.28210
H          1.11190        2.49870        6.58310
H          2.72120        0.66680        7.03320
H          3.60310       -0.69150        5.15550
H          2.85980       -0.24460        2.86100
H         -4.19190        1.60930        2.15330
H         -5.49720        0.76800        4.04690
H         -4.37150       -0.38070        5.93180
H         -1.91180       -0.67460        5.90460
H         -0.60040        0.14920        4.03100
H         -3.08690        3.00550       -0.54960
H         -4.20290        5.18980       -0.53870
H         -3.93830        6.70970        1.40250
H         -2.57050        6.00370        3.34640
H         -1.46290        3.80810        3.34500
H          3.32810        3.05940       -0.57400
H          4.17180        5.31310       -1.03480
H          3.52430        6.48160       -3.12130
H          2.04220        5.35510       -4.75830
H          1.19080        3.09890       -4.30310
H          0.85300       -1.11420       -3.88000
H          2.12860       -2.34540       -5.56990
H          4.49350       -1.74840       -6.01740
H          5.56280        0.09510       -4.75140
H          4.28750        1.34440       -3.06500
H          0.04740        1.44180       -5.19390
H         -0.62800        0.34670       -7.28390
H         -2.36060       -1.42590       -7.25930
H         -3.42480       -2.08260       -5.12030
H         -2.75230       -1.00520       -3.02610
H         -0.02750        3.72620       -1.15620
H         -0.69190        6.07950       -1.51060
H         -2.40450        6.62830       -3.22060
H         -3.43380        4.81550       -4.56330
H         -2.76630        2.47880       -4.21160
H         -0.53080       -4.47430        1.12630
H         -1.60680       -5.68310        2.97110
H         -3.54460       -4.68550        4.15240
H         -4.41550       -2.47580        3.44740
H         -3.34830       -1.26370        1.60490
H         -3.50900       -3.27260       -0.84550
H         -4.20950       -4.70310       -2.71470
H         -2.63670       -5.20700       -4.56330
H         -0.34900       -4.25080       -4.53420
H          0.35400       -2.81190       -2.68120
H          3.65120       -1.48480       -1.62960
H          4.89110       -3.05250       -3.04520
H          4.19510       -5.42640       -3.18460
H          2.25340       -6.22380       -1.86610
H          1.00900       -4.66560       -0.43550
H         -0.08660       -1.49290        2.76780
H          0.26830       -2.40280        5.03740
H          2.18790       -3.91540        5.46810
H          3.73280       -4.50670        3.62100
H          3.37280       -3.60470        1.36570
H         -3.88980       -0.93570       -0.86420
H         -4.14940        0.42140        0.26530
H         -6.73010        1.08890       -2.47520
H         -6.38930        0.85690       -0.71740
H         -6.14430       -0.51340       -1.88470
