144
mol59-C-0
C          0.38510       -2.84780       -6.01300
S          1.14940       -2.29640       -4.45690
C         -0.39870       -1.63440       -3.75910
Ge        -0.13490       -0.86690       -1.97310
Ge         1.87500        0.55940       -1.97900
C          1.89200        1.74060       -3.59750
C          3.06510        2.72920       -3.63030
C          1.86850        0.95640       -4.91010
C          3.45920       -0.62570       -2.22990
C          3.67370       -1.56420       -1.05710
C          4.75520        0.11930       -2.55780
Ge         1.81970        1.77640        0.18480
C          3.71580        1.79150        0.81280
C          4.54190        2.96810        0.28360
C          3.85960        1.71640        2.32620
C          1.07600        3.63260        0.04770
C          1.30820        4.47450        1.30890
C          1.57190        4.41060       -1.16820
Ge        -2.07690        0.58590       -1.51550
C         -1.67450        2.33020       -2.38760
C         -2.59900        3.48370       -1.96180
C         -1.64950        2.23070       -3.91480
C         -3.79760       -0.08190       -2.32790
C         -3.64040       -0.66340       -3.74230
C         -4.88550        0.99240       -2.36080
Ge        -2.07040        0.90960        0.94540
C         -3.17950       -0.41970        1.92630
C         -4.38790       -0.88990        1.12020
C         -3.64360        0.05830        3.30390
C         -2.69560        2.75880        1.39200
C         -4.21050        2.94480        1.24270
C         -2.27260        3.25470        2.77060
Ge         0.25580        0.55280        1.69350
Ge         0.77240       -1.86550        1.78140
C          2.72250       -1.92960        2.23730
C          3.41750       -3.24110        1.87420
C          3.01660       -1.62350        3.71160
C         -0.28450       -2.86300        3.15980
C         -0.58820       -2.04590        4.40950
C          0.34940       -4.19470        3.57990
Ge         0.01940       -2.77540       -0.39620
C          1.13650       -4.24500       -1.17280
C          1.51470       -5.32410       -0.15440
C          0.48620       -4.93660       -2.37820
C         -1.78950       -3.53370       -0.10210
C         -2.62560       -3.52800       -1.37210
C         -1.79160       -4.93600        0.50990
C          0.27570        1.09860        3.59700
S          1.22030        2.59980        3.98430
C          0.86190        2.55400        5.76820
H          1.16220       -3.31630       -6.65100
H         -0.40770       -3.59600       -5.80430
H         -0.04830       -1.98030       -6.55300
H         -0.81460       -0.87170       -4.43840
H         -1.13350       -2.45350       -3.68940
H          0.97040        2.33520       -3.57370
H          3.92200        2.35850       -4.22640
H          3.41950        2.94570       -2.61730
H          2.74000        3.68300       -4.09830
H          1.96400        1.64970       -5.77350
H          2.70090        0.22600       -4.95500
H          0.90740        0.43650       -5.03370
H          3.23690       -1.26230       -3.10470
H          2.70830       -1.75720       -0.56840
H          4.09990       -2.52500       -1.41680
H          4.38820       -1.15600       -0.31840
H          4.88690        0.99840       -1.90260
H          4.75980        0.42940       -3.61880
H          5.63460       -0.54820       -2.42970
H          4.17320        0.87480        0.41030
H          5.59620        2.86860        0.62020
H          4.15880        3.93890        0.65000
H          4.55910        2.98240       -0.81450
H          3.13250        1.00230        2.73560
H          4.87760        1.36000        2.59260
H          3.71650        2.71050        2.79390
H         -0.01780        3.51930       -0.06880
H          0.48910        4.31390        2.02410
H          2.27040        4.23890        1.79290
H          1.29590        5.56400        1.09190
H          2.67120        4.53430       -1.14700
H          1.24730        3.91860       -2.09180
H          1.11170        5.42150       -1.19480
H         -0.65390        2.57640       -2.05350
H         -3.06650        3.99790       -2.82910
H         -2.01980        4.25780       -1.41680
H         -3.42270        3.12640       -1.32590
H         -1.08000        1.34530       -4.23950
H         -1.16060        3.13270       -4.34120
H         -2.67430        2.18200       -4.33310
H         -4.19190       -0.89860       -1.70640
H         -4.63380       -0.82290       -4.21370
H         -3.05760       -0.00600       -4.40600
H         -3.17100       -1.65700       -3.71840
H         -4.59820        1.83890       -3.01440
H         -5.10180        1.35470       -1.34810
H         -5.83570        0.56660       -2.74890
H         -2.52590       -1.28780        2.10680
H         -4.95680       -0.03170        0.71300
H         -4.05660       -1.54780        0.30390
H         -5.07050       -1.49810        1.75150
H         -4.08200       -0.79360        3.86670
H         -2.80150        0.43600        3.90350
H         -4.42060        0.83920        3.22040
H         -2.19520        3.42680        0.67310
H         -4.62210        2.25920        0.49530
H         -4.75300        2.76970        2.19300
H         -4.43080        3.98600        0.92400
H         -2.57100        4.31750        2.89770
H         -1.18460        3.21340        2.86070
H         -2.73810        2.67030        3.58520
H          3.19580       -1.12200        1.65010
H          3.32180       -3.46040        0.79920
H          3.01800       -4.08140        2.47620
H          4.50610       -3.16150        2.08230
H          2.55230       -0.68600        4.03740
H          4.11160       -1.50440        3.85790
H          2.67570       -2.43380        4.37930
H         -1.25950       -3.10360        2.69820
H         -1.13800       -1.13190        4.13680
H          0.34280       -1.79600        4.95680
H         -1.24410       -2.62600        5.09360
H         -0.39480       -4.80060        4.14000
H          1.22320       -4.04910        4.23990
H          0.66490       -4.78830        2.71240
H          2.06820       -3.77030       -1.53300
H          2.45080       -5.83110       -0.47160
H          1.67040       -4.88790        0.83170
H          0.72890       -6.09740       -0.04180
H         -0.03540       -4.22450       -3.02260
H         -0.25970       -5.69700       -2.07540
H          1.26550       -5.44820       -2.98250
H         -2.27880       -2.86610        0.61850
H         -3.67880       -3.79530       -1.14140
H         -2.61100       -2.51660       -1.78980
H         -2.23430       -4.23870       -2.12560
H         -2.79200       -5.15130        0.94250
H         -1.58140       -5.71410       -0.24830
H         -1.04980       -5.01880        1.31790
H         -0.76140        1.23510        3.93750
H          0.69420        0.29230        4.20490
H          1.36670        3.41030        6.26000
H         -0.23180        2.63560        5.93940
H          1.24290        1.60990        6.21050
