24
mol56-C-2
C         -3.31130      -12.00300        5.26280
S         -2.12650      -11.98940        3.87960
C         -2.82280      -10.52950        3.03140
Ge        -1.83000      -10.10500        1.40470
Ge        -0.03030       -8.58530        1.84360
Ge         1.36840       -8.43870       -0.09310
Ge        -3.28760       -9.15590       -0.24140
Ge        -1.97810       -8.34160       -2.07180
Ge         0.19490       -9.33690       -1.97560
Ge        -0.05550      -11.69940       -1.68130
Ge        -0.91520      -12.12750        0.51110
C          1.16160       -8.92900       -3.61560
S          2.84870       -9.62180       -3.53020
C          3.37780       -9.04270       -5.17430
H         -3.12990      -11.13430        5.92630
H         -4.35460      -11.98370        4.88560
H         -3.16370      -12.93120        5.85170
H         -2.84410       -9.64680        3.70330
H         -3.86660      -10.76750        2.74170
H          0.59140       -9.31050       -4.48780
H          1.23840       -7.82630       -3.70660
H          3.39370       -7.93330       -5.19750
H          4.40050       -9.42010       -5.37870
H          2.69190       -9.42350       -5.95790
