132
mol50-D-0
C          4.32780       -1.20550        4.71120
S          2.78140       -1.50410        3.79970
C          2.90870        0.00540        2.78390
Si         1.49210        0.28860        1.54000
Si        -0.61350        0.15020        2.56900
N         -0.61890        0.91210        4.24710
C          0.28960        0.28770        5.21390
C         -1.94820        1.06610        4.85390
N         -1.19700       -1.59060        2.61210
C         -2.30860       -1.82390        3.54210
C         -0.14400       -2.57480        2.87750
Si        -2.03200        1.36000        1.17260
N         -3.77910        0.77690        1.15380
C         -4.64240        1.25360        2.24640
C         -3.97350       -0.65950        0.90610
N         -2.01500        3.17810        1.42120
C         -3.18240        3.87980        0.84980
C         -1.75780        3.63110        2.78950
Si         2.00030        2.40510        0.73900
N          1.83960        3.74100        1.98980
C          1.87080        3.32080        3.39330
C          2.73470        4.89270        1.78750
N          3.76130        2.20710        0.24060
C          4.15750        2.85360       -1.01050
C          4.75750        2.47670        1.28880
Si         0.50310        2.83360       -1.03080
N          1.42410        2.82960       -2.61980
C          1.98800        4.13400       -3.00920
C          0.72300        2.22390       -3.75740
N         -0.47950        4.38480       -0.86070
C          0.08190        5.40510        0.02310
C         -0.92440        5.00780       -2.11730
Si        -1.13500        1.19440       -0.93570
Si        -0.36310       -0.95520       -1.46080
N         -1.59090       -2.14190       -0.78240
C         -2.73480       -2.38870       -1.66870
C         -1.05710       -3.43100       -0.33810
N         -0.20150       -1.16880       -3.28840
C          0.32520       -2.47180       -3.70890
C         -1.39390       -0.84240       -4.08690
Si         1.73300       -1.05150       -0.37170
N          3.06530       -0.23520       -1.34570
C          4.42320       -0.58420       -0.90830
C          2.97980       -0.41000       -2.79680
N          2.19130       -2.79030        0.04960
C          3.37010       -2.97190        0.91200
C          2.29590       -3.67930       -1.11180
C         -2.43410        1.93580       -2.10160
S         -4.04900        1.10150       -2.05980
C         -4.81310        2.19130       -3.30080
H          4.26460       -0.24610        5.26590
H          4.48460       -2.02990        5.43640
H          5.18570       -1.17790        4.00760
H          2.96250        0.86110        3.47180
H          3.86750       -0.00900        2.24040
H          1.33250        0.50160        4.94680
H          0.11260       -0.80030        5.29820
H          0.15590        0.73540        6.22350
H         -1.93760        1.94730        5.52940
H         -2.24340        0.18220        5.45680
H         -2.71820        1.24950        4.09540
H         -2.81600       -2.77620        3.27830
H         -1.95790       -1.89780        4.59320
H         -3.06660       -1.02850        3.46810
H          0.20040       -2.53930        3.92850
H         -0.53150       -3.59870        2.68790
H          0.70950       -2.42820        2.19850
H         -4.62140        0.57640        3.12340
H         -5.68970        1.30350        1.88150
H         -4.37100        2.26210        2.58990
H         -4.64270       -1.14540        1.64970
H         -3.02430       -1.20810        0.92120
H         -4.46040       -0.79730       -0.07590
H         -3.75360        3.25200        0.13840
H         -2.83680        4.78110        0.30710
H         -3.89480        4.22890        1.62860
H         -1.59960        4.73060        2.79770
H         -0.83480        3.17920        3.17430
H         -2.60790        3.41040        3.46290
H          1.26340        2.42080        3.54270
H          2.90200        3.13320        3.75310
H          1.42810        4.11920        4.02600
H          3.67590        4.80290        2.36880
H          2.22220        5.81400        2.13520
H          2.99080        5.03770        0.72220
H          5.25110        2.74300       -1.18090
H          3.92500        3.93380       -0.99650
H          3.68530        2.33660       -1.85960
H          5.62290        1.79600        1.14650
H          5.13900        3.51870        1.23740
H          4.36480        2.28980        2.30000
H          1.33770        4.68110       -3.72370
H          2.17310        4.78560       -2.13390
H          2.95970        3.97020       -3.51990
H          1.45830        1.96960       -4.55000
H         -0.03610        2.89800       -4.19860
H          0.23180        1.29140       -3.46170
H          0.05000        5.05240        1.06440
H         -0.54780        6.32210        0.01440
H          1.10070        5.69110       -0.29750
H         -1.88380        5.53720       -1.93820
H         -1.11930        4.26570       -2.90630
H         -0.19530        5.75920       -2.48720
H         -2.45500       -3.02130       -2.53520
H         -3.53660       -2.91730       -1.10970
H         -3.17100       -1.44420       -2.02300
H         -0.82850       -4.10110       -1.19120
H         -1.80870       -3.93990        0.30260
H         -0.16990       -3.29560        0.28620
H          1.37710       -2.57110       -3.41460
H          0.32750       -2.55420       -4.81840
H         -0.27690       -3.30640       -3.30120
H         -1.97770       -1.74470       -4.37140
H         -2.07250       -0.16810       -3.56180
H         -1.07420       -0.33530       -5.02100
H          4.56340       -0.35730        0.16040
H          5.16980        0.03820       -1.44710
H          4.65730       -1.64790       -1.11510
H          1.98720       -0.13390       -3.16450
H          3.68680        0.28350       -3.30070
H          3.24630       -1.44040       -3.10250
H          3.72660       -2.03220        1.33660
H          3.10240       -3.65540        1.74400
H          4.23760       -3.41750        0.37520
H          2.56400       -4.70930       -0.78870
H          3.06560       -3.32530       -1.82570
H          1.32400       -3.77900       -1.60580
H         -2.04840        1.97960       -3.13680
H         -2.61180        2.97350       -1.78000
H         -4.80900        3.24140       -2.94100
H         -4.26190        2.12060       -4.26150
H         -5.86260        1.87220       -3.46470
