84
mol52-A-2
C          3.10220       -4.96490       -0.84510
S          2.40880       -3.45550       -1.58830
C          1.61910       -2.88570       -0.04990
Si         0.72380       -1.26170       -0.33510
Si        -0.13070       -0.48850        1.59300
O         -0.64530       -1.74330        2.68720
C         -1.59270       -2.58070        2.07780
O          1.12360        0.46550        2.32410
C          1.43470       -0.03500        3.59870
Si        -1.77300        0.95180        1.06840
O         -3.26810        0.09980        0.84010
C         -4.27480        0.99150        0.43080
O         -1.93100        2.14240        2.32020
C         -2.44390        1.53580        3.48070
Si         2.15160        0.33960       -1.00800
O          3.52940        0.22880        0.04410
C          4.51690        1.14810       -0.34310
O          2.62140        0.16080       -2.66970
C          3.15450       -1.12140       -2.88390
Si         1.10870        2.33030       -0.78050
O          1.63090        3.04590        0.71300
C          0.91790        4.23250        0.95300
O          1.46750        3.36650       -2.12800
C          2.82580        3.72020       -2.12790
Si        -1.11960        1.96940       -0.82510
Si        -1.45550        0.59980       -2.56650
O         -0.42500        1.17900       -3.84390
C         -0.20160        0.17500       -4.80140
O         -3.12380        0.64130       -3.04660
C         -3.32710        1.63000       -4.02420
Si        -0.92510       -1.48830       -1.84660
O         -2.25420       -2.27440       -1.04700
C         -3.43270       -2.17440       -1.80760
O         -0.36540       -2.44650       -3.18230
C         -0.53480       -3.81410       -2.90370
C         -2.08920        3.56630       -1.01380
S         -1.38450        4.60330       -2.33540
C         -2.59980        5.94210       -2.13210
H          2.28540       -5.61010       -0.45980
H          3.79390       -4.70000       -0.01850
H          3.66580       -5.52350       -1.62000
H          0.89430       -3.64690        0.29950
H          2.39300       -2.74260        0.72980
H         -1.86550       -3.37770        2.79890
H         -1.18060       -3.08660        1.18240
H         -2.52510       -2.03380        1.83670
H          0.56520        0.04450        4.28730
H          1.80640       -1.08200        3.54600
H          2.25100        0.58190        4.02650
H         -4.34960        1.88800        1.08640
H         -4.12890        1.28660       -0.62750
H         -5.24920        0.46510        0.48800
H         -3.46510        1.12840        3.31410
H         -2.52560        2.30910        4.27150
H         -1.76540        0.74480        3.86620
H          5.42320        0.96140        0.26820
H          4.81400        1.02250       -1.40780
H          4.19310        2.18750       -0.12990
H          2.34620       -1.88070       -2.89990
H          3.94240       -1.38870       -2.14350
H          3.63160       -1.13650       -3.88490
H         -0.12020        4.00560        1.27000
H          0.92890        4.92390        0.08020
H          1.40400        4.76600        1.79500
H          3.45990        2.84820       -2.38880
H          3.14120        4.18170       -1.16610
H          2.98560        4.48220       -2.91770
H          0.60270       -0.50620       -4.45840
H         -1.12160       -0.39480       -5.06550
H          0.15850        0.65730       -5.73270
H         -2.83810        1.35410       -4.98240
H         -2.98970        2.63040       -3.68320
H         -4.41560        1.70480       -4.22250
H         -3.27030       -2.29300       -2.90340
H         -3.94540       -1.21720       -1.58710
H         -4.11820       -2.98740       -1.49310
H         -0.06670       -4.11230       -1.94170
H         -1.60920       -4.09460       -2.91770
H         -0.03410       -4.39700       -3.70330
H         -2.06520        4.11930       -0.05360
H         -3.14240        3.32210       -1.25580
H         -3.62380        5.55960       -2.32430
H         -2.54030        6.35860       -1.10500
H         -2.37510        6.74810       -2.86020
