108
mol58-B-1
C         -5.08630        0.99120       -4.44550
S         -3.34640        0.77640       -3.95840
C         -3.69400        0.77510       -2.17270
Ge        -2.03780        0.55800       -1.16690
Ge        -2.48210        0.36470        1.19510
C         -3.67820        1.78690        1.81090
C         -4.18410        1.52770        3.22240
C         -3.29770       -1.36290        1.60340
C         -4.62900       -1.53080        0.88710
Ge        -0.38510        0.55150        2.34340
C         -0.28020        2.35910        3.07670
C          0.99940        2.57060        3.87170
C         -0.25550       -0.76170        3.78520
C         -1.21720       -0.44970        4.92180
Ge        -0.93610       -1.45160       -1.89460
C         -0.18550       -1.25340       -3.68720
C         -1.26790       -1.00290       -4.72600
C         -2.24480       -2.90310       -1.87640
C         -1.69090       -4.17130       -2.50800
Ge         0.88370       -1.91480       -0.40300
C          2.42250       -2.53350       -1.44310
C          2.21570       -3.94520       -1.97220
C          0.36150       -3.32400        0.84520
C          1.48400       -3.64540        1.82000
Ge         1.39130        0.12380        0.78030
Ge         1.57260        1.95370       -0.76710
C          2.71660        1.33800       -2.23460
C          3.95910        2.19340       -2.42800
C          2.30130        3.48060        0.22050
C          2.32940        4.75800       -0.60880
Ge        -0.62810        2.45810       -1.58920
C         -0.58830        2.73320       -3.52850
C          0.39220        3.82060       -3.94820
C         -1.39420        3.96000       -0.58980
C         -1.76810        5.14110       -1.47180
C          3.07200       -0.03600        1.75590
S          4.45440       -0.24270        0.59150
C          5.72500       -0.34200        1.89010
H         -5.15050        1.02430       -5.55220
H         -5.69400        0.13910       -4.07570
H         -5.48300        1.94250       -4.03390
H         -4.37100       -0.06800       -1.93770
H         -4.18330        1.72380       -1.87860
H         -4.54510        1.85310        1.12340
H         -3.13330        2.75060        1.80460
H         -4.74800        0.57370        3.26810
H         -4.86390        2.35090        3.52690
H         -3.33690        1.49430        3.93530
H         -3.45660       -1.43990        2.69760
H         -2.61180       -2.17170        1.29740
H         -5.10540       -2.48010        1.20990
H         -5.31200       -0.68980        1.12730
H         -4.46980       -1.57640       -0.20770
H         -0.33590        3.08950        2.24660
H         -1.15180        2.52610        3.74120
H          0.98450        3.58010        4.33310
H          1.08820        1.81280        4.67760
H          1.88080        2.50570        3.20650
H         -0.48480       -1.76760        3.38330
H          0.78530       -0.76160        4.17120
H         -1.07560       -1.18890        5.73770
H         -2.26460       -0.51800        4.56780
H         -1.02720        0.56480        5.32870
H          0.36170       -2.18110       -3.94990
H          0.53880       -0.41600       -3.68490
H         -0.80960       -0.97260       -5.73660
H         -2.02570       -1.81340       -4.70380
H         -1.76270       -0.03120       -4.53990
H         -2.53610       -3.11780       -0.82990
H         -3.14550       -2.57440       -2.43590
H         -0.83500       -4.55220       -1.91680
H         -2.48050       -4.95140       -2.52150
H         -1.36680       -3.98010       -3.55150
H          2.57790       -1.85510       -2.30400
H          3.32410       -2.51830       -0.79860
H          1.34020       -3.97830       -2.65010
H          3.11310       -4.25840       -2.54590
H          2.06810       -4.65970       -1.13690
H         -0.53150       -3.00070        1.40760
H          0.09840       -4.23630        0.27350
H          2.41400       -3.90760        1.27400
H          1.18790       -4.50740        2.45370
H          1.67550       -2.77770        2.48060
H          3.04040        0.30930       -1.99910
H          2.13300        1.31230       -3.17640
H          4.48050        2.35360       -1.46170
H          3.68980        3.16460       -2.88690
H          4.65610        1.67550       -3.11990
H          3.32410        3.23600        0.57560
H          1.66020        3.65250        1.10560
H          3.13490        4.71970       -1.36520
H          2.53010        5.62360        0.05680
H          1.35850        4.92200       -1.11480
H         -1.60860        2.98350       -3.88660
H         -0.27940        1.78220       -4.00220
H          1.37310        3.68010       -3.45450
H          0.54170        3.77620       -5.04740
H         -0.00170        4.82380       -3.70120
H         -0.68050        4.29060        0.19090
H         -2.31080        3.59900       -0.09150
H         -2.36420        4.80600       -2.34580
H         -0.85740        5.67400       -1.80740
H         -2.38070        5.85720       -0.88460
H          3.23360        0.88500        2.34770
H          3.01950       -0.90230        2.44330
H          5.73570        0.59440        2.48590
H          6.71820       -0.47640        1.41480
H          5.52460       -1.20830        2.55440
