72
mol57-B-1
C          3.03580        3.01240       -2.50510
S          1.63100        4.00750       -1.91740
C          1.50600        3.21040       -0.28150
Ge         0.06090        3.97300        0.78990
Ge        -1.43700        2.35320        1.74900
C         -0.44930        0.95170        2.66560
C         -2.55760        1.53350        0.39060
Ge        -2.85270        3.43410        3.34380
C         -4.69020        2.85210        3.10230
C         -2.27410        2.92830        5.12790
Ge        -1.18580        5.53580       -0.53300
C         -1.82630        4.74120       -2.18540
C         -0.06050        7.04810       -0.99760
Ge        -3.05850        6.30390        0.73290
C         -4.66290        5.41170        0.10120
C         -3.27150        8.22070        0.50030
Ge        -2.71710        5.80350        3.04420
Ge        -0.53750        6.54780        3.68700
C         -0.29900        6.39860        5.60950
C         -0.29680        8.40740        3.18310
Ge         1.08840        5.19090        2.57890
C          1.86250        3.95070        3.85640
C          2.51010        6.31650        1.88110
C         -4.09590        6.71370        4.06750
S         -3.94460        6.28170        5.82830
C         -5.35530        7.30630        6.34910
H          3.30220        3.33520       -3.53210
H          3.90990        3.16920       -1.84570
H          2.76460        1.93660       -2.52560
H          1.27870        2.13720       -0.44300
H          2.46150        3.27400        0.27930
H          0.24540        1.40300        3.40020
H         -1.16400        0.28940        3.19550
H          0.12580        0.35400        1.93110
H         -1.93910        0.88890       -0.26470
H         -3.33290        0.91270        0.88390
H         -3.04870        2.32240       -0.21120
H         -4.75780        1.76170        3.29300
H         -5.34360        3.39570        3.81500
H         -5.01610        3.06470        2.06540
H         -1.20080        3.16910        5.25080
H         -2.87020        3.47530        5.88520
H         -2.41970        1.83710        5.26280
H         -0.96080        4.43090       -2.80540
H         -2.46360        3.86440       -1.95820
H         -2.42430        5.49170       -2.74150
H         -0.58850        7.68440       -1.73690
H          0.89050        6.68000       -1.43390
H          0.15110        7.64470       -0.09040
H         -4.90660        5.77330       -0.91860
H         -4.48720        4.31870        0.06840
H         -5.50470        5.63530        0.78800
H         -2.34710        8.74020        0.82040
H         -3.46600        8.44100       -0.56920
H         -4.12560        8.57250        1.11410
H         -0.52160        5.36400        5.93570
H         -0.98310        7.10500        6.12210
H          0.75000        6.64890        5.86820
H         -1.12450        9.01310        3.60530
H          0.67240        8.77240        3.57990
H         -0.29680        8.49610        2.08040
H          1.05260        3.43380        4.40650
H          2.48410        3.20620        3.31810
H          2.49210        4.51160        4.57690
H          2.08640        7.06970        1.18880
H          3.01340        6.83450        2.72280
H          3.24580        5.68790        1.33930
H         -5.08800        6.39770        3.68340
H         -3.97440        7.80840        3.93160
H         -5.16690        8.37090        6.09800
H         -6.28350        6.96040        5.84820
H         -5.48380        7.21370        7.44690
