72
mol57-B-0
C          2.88540        1.57850       -1.77740
S          1.38810        1.71800       -0.75380
C          1.54270        3.50740       -0.43580
Ge         0.08730        4.17480        0.68410
Ge        -1.29840        2.46240        1.65110
C         -0.21530        1.10060        2.51850
C         -2.40850        1.60670        0.30650
Ge        -2.72780        3.44070        3.29910
C         -4.53770        2.76610        3.09260
C         -2.07820        2.93740        5.05920
Ge        -1.27320        5.69050       -0.58010
C         -1.91290        4.89000       -2.23000
C         -0.24130        7.26780       -1.04560
Ge        -3.15090        6.33760        0.74480
C         -4.72170        5.37190        0.13720
C         -3.47020        8.24390        0.55120
Ge        -2.72480        5.81860        3.03790
Ge        -0.57160        6.66690        3.63980
C         -0.27680        6.49930        5.55290
C         -0.44200        8.54450        3.16290
Ge         1.09460        5.41620        2.46830
C          1.96520        4.19830        3.70450
C          2.43690        6.62690        1.75570
C         -4.12300        6.63760        4.11060
S         -3.90430        6.18570        5.85930
C         -5.35320        7.12540        6.43250
H          3.00340        0.52470       -2.10250
H          2.78880        2.21810       -2.67450
H          3.78090        1.87670       -1.19380
H          2.49410        3.67470        0.10880
H          1.58570        4.08910       -1.37980
H          0.47320        1.57610        3.24360
H         -0.88040        0.39290        3.05400
H          0.37150        0.54630        1.75960
H         -1.77390        1.00650       -0.37500
H         -3.13730        0.93770        0.80780
H         -2.95560        2.37810       -0.26900
H         -4.54300        1.67070        3.26570
H         -5.20050        3.26270        3.83060
H         -4.90070        2.97790        2.06790
H         -1.01620        3.23280        5.15980
H         -2.68270        3.43970        5.84040
H         -2.16270        1.83800        5.17850
H         -1.04840        4.63620       -2.87640
H         -2.49720        3.97710       -2.00260
H         -2.56360        5.61670       -2.75790
H         -0.82070        7.88710       -1.76040
H          0.71630        6.95770       -1.51160
H         -0.03820        7.85990       -0.13350
H         -5.01000        5.73670       -0.86980
H         -4.48950        4.29050        0.08090
H         -5.55620        5.53940        0.84830
H         -2.56660        8.80640        0.85750
H         -3.70330        8.47090       -0.50920
H         -4.32580        8.54000        1.19190
H         -0.43620        5.44920        5.86630
H         -0.98370        7.16000        6.09450
H          0.76390        6.80070        5.79010
H         -1.28950        9.09850        3.61590
H          0.51640        8.95390        3.54200
H         -0.47480        8.65100        2.06220
H          1.19790        3.63030        4.26520
H          2.61120        3.49670        3.13810
H          2.58260        4.78000        4.41900
H          1.95660        7.36760        1.08740
H          2.93350        7.15700        2.59380
H          3.19050        6.04700        1.18500
H         -5.10660        6.27580        3.74550
H         -4.06270        7.73930        3.99100
H         -5.22750        8.20250        6.19560
H         -6.27440        6.73910        5.94860
H         -5.44870        7.00840        7.53140
