48
mol51-E-2
C         -4.09820        1.90040      -10.51370
S         -4.32790        1.67440       -8.72140
C         -4.58610        3.44000       -8.32840
Si        -4.87360        3.66500       -6.49340
Si        -5.14310        5.82510       -5.97740
O         -6.34320        6.52530       -6.98440
O         -3.65450        6.65320       -6.19280
Si        -5.79460        5.99660       -3.84360
O         -7.48010        6.31490       -3.77390
O         -4.93830        7.28310       -3.09810
Si        -3.09060        2.91010       -5.38120
O         -3.05110        1.19690       -5.47260
O         -1.66110        3.55820       -6.07560
Si        -3.22630        3.54620       -3.24260
O         -2.70580        2.25410       -2.23970
O         -2.22090        4.91600       -2.99630
Si        -5.34600        4.08750       -2.77360
Si        -6.69350        2.48330       -3.55920
O         -6.13440        0.95690       -3.00870
O         -8.29760        2.73250       -3.00190
Si        -6.66660        2.52600       -5.79650
O         -8.08170        3.30510       -6.37520
O         -6.60890        0.91830       -6.39470
C         -5.58510        4.34800       -0.93650
S         -5.21810        2.80910       -0.02250
C         -5.55990        3.47650        1.63690
H         -3.88830        0.91520      -10.97800
H         -3.24250        2.57710      -10.70870
H         -5.02090        2.32060      -10.96480
H         -5.49070        3.79110       -8.86540
H         -3.72980        4.07280       -8.64120
H         -5.86510        6.76400       -7.81790
H         -3.04030        6.24490       -5.53220
H         -7.87780        5.72470       -4.46220
H         -5.29680        7.32230       -2.17600
H         -2.23520        0.93760       -4.97520
H         -1.64560        3.19970       -6.99840
H         -2.45030        2.68370       -1.38510
H         -2.44950        5.23730       -2.08780
H         -5.21770        0.87670       -3.37410
H         -8.53420        3.64360       -3.30640
H         -8.82760        2.73180       -6.06700
H         -5.74450        0.55950       -6.07210
H         -6.61690        4.71310       -0.75410
H         -4.87590        5.13270       -0.60290
H         -5.42410        2.66990        2.38580
H         -4.85480        4.30230        1.86660
H         -6.60320        3.84620        1.69450
