156
mol55-E-0
C          0.11020        5.98470       -1.69750
S          0.70260        4.28200       -1.94560
C          0.02680        3.65230       -0.37060
Si         0.32560        1.80600        0.00030
Si         0.97000        1.78870        2.30350
C          2.45320        2.96110        2.64970
C          3.72450        2.51430        3.07590
F          3.95880        1.23110        3.37640
C          4.76680        3.41440        3.31940
F          5.98430        2.95190        3.69910
C          4.55040        4.78430        3.22000
F          5.56090        5.65340        3.47170
C          3.28060        5.25970        2.91190
F          3.04950        6.59630        2.88860
C          2.23500        4.36660        2.65830
F          0.99760        4.89690        2.51310
C         -0.21380        2.62910        3.54210
C          0.19180        2.82450        4.88160
F          1.48220        2.65290        5.24970
C         -0.69320        3.34810        5.82970
F         -0.29320        3.50350        7.11640
C         -1.96870        3.75720        5.44550
F         -2.82340        4.27380        6.36320
C         -2.33390        3.70360        4.10220
F         -3.53730        4.18990        3.70940
C         -1.44950        3.17700        3.15550
F         -1.78500        3.25510        1.86230
Si         1.06150       -0.49820        2.89630
C         -0.39780       -0.80750        4.07270
C         -0.32030       -1.64850        5.21360
F          0.77920       -2.38890        5.48740
C         -1.40130       -1.75060        6.09640
F         -1.30790       -2.54560        7.19140
C         -2.57380       -1.03660        5.85740
F         -3.61480       -1.12830        6.72180
C         -2.68480       -0.25380        4.71100
F         -3.83480        0.41940        4.46560
C         -1.61560       -0.17150        3.81360
F         -1.77440        0.49620        2.66110
C          2.55980       -0.91200        4.00700
C          2.65230       -0.34090        5.29950
F          1.61450        0.33450        5.83720
C          3.77150       -0.56100        6.10820
F          3.84030        0.00640        7.33830
C          4.80020       -1.38990        5.66930
F          5.88120       -1.60970        6.45830
C          4.68960       -2.03430        4.44030
F          5.65820       -2.89670        4.04240
C          3.57430       -1.81320        3.62520
F          3.48090       -2.53280        2.49680
Si         2.19530        1.00470       -1.20110
C          1.91320        1.23660       -3.05600
C          2.58730        2.21730       -3.82230
F          3.40640        3.13210       -3.25220
C          2.40100        2.28510       -5.20840
F          3.04880        3.23200       -5.93200
C          1.55320        1.38190       -5.85060
F          1.38030        1.44810       -7.19400
C          0.87490        0.41920       -5.10580
F          0.03930       -0.45300       -5.72280
C          1.04710        0.35990       -3.72060
F          0.35290       -0.54560       -3.01230
C          3.86070        1.91400       -0.88830
C          3.90350        3.21960       -0.35650
F          2.78200        3.87480       -0.03510
C          5.11230        3.90820       -0.20960
F          5.11540        5.17940        0.26280
C          6.31090        3.30920       -0.57880
F          7.48200        3.97600       -0.42540
C          6.29980        2.03500       -1.13420
F          7.46590        1.45670       -1.51670
C          5.09160        1.35450       -1.31450
F          5.15800        0.13430       -1.87800
Si         2.36520       -1.29780       -0.73650
C          4.07660       -1.72270       -0.05880
C          4.71680       -0.81980        0.79910
F          4.06220        0.27410        1.21440
C          6.01150       -1.05650        1.26800
F          6.61070       -0.15700        2.08740
C          6.67610       -2.22900        0.91350
F          7.92810       -2.46750        1.37710
C          6.03790       -3.17000        0.10480
F          6.67090       -4.32770       -0.20990
C          4.74490       -2.92870       -0.37540
F          4.15550       -3.89860       -1.11210
C          2.29910       -2.32900       -2.36290
C          1.66660       -3.58900       -2.41930
F          1.14790       -4.15160       -1.32210
C          1.66770       -4.35530       -3.59010
F          1.09450       -5.58410       -3.59720
C          2.30020       -3.88660       -4.73520
F          2.29270       -4.62850       -5.87060
C          2.98220       -2.67670       -4.69560
F          3.63720       -2.23620       -5.79890
C          3.01390       -1.92320       -3.51810
F          3.73360       -0.78720       -3.54430
Si         0.77840       -1.81350        0.93700
Si        -1.39050       -1.67530       -0.02880
C         -1.52180       -3.02860       -1.39530
C         -1.67940       -2.75660       -2.77440
F         -1.80240       -1.51170       -3.24380
C         -1.81310       -3.78770       -3.70980
F         -1.94270       -3.49160       -5.02750
C         -1.85110       -5.11380       -3.29590
F         -1.99490       -6.10800       -4.20720
C         -1.77510       -5.41400       -1.94130
F         -1.86570       -6.70410       -1.53190
C         -1.63580       -4.39130       -0.99810
F         -1.69430       -4.75310        0.30570
C         -2.83730       -2.37020        0.98710
C         -4.09220       -2.58370        0.36720
F         -4.24180       -2.45290       -0.97100
C         -5.18590       -3.04780        1.10540
F         -6.38800       -3.21830        0.50060
C         -5.03350       -3.37540        2.45130
F         -6.09130       -3.83710        3.16350
C         -3.77350       -3.29920        3.04100
F         -3.59910       -3.72140        4.31800
C         -2.68050       -2.83150        2.30430
F         -1.46110       -2.94210        2.84530
Si        -1.74370        0.65090       -0.50790
C         -3.21960        1.62870        0.26090
C         -3.57240        2.89030       -0.29750
F         -2.95600        3.38060       -1.39940
C         -4.62700        3.64530        0.22370
F         -4.92170        4.85610       -0.31230
C         -5.39810        3.14700        1.26690
F         -6.42760        3.87780        1.76240
C         -5.14000        1.87590        1.76690
F         -5.93960        1.36160        2.73470
C         -4.08150        1.11530        1.25850
F         -3.95460       -0.13170        1.73080
C         -2.48800        0.80050       -2.25140
C         -1.86070        1.51350       -3.28450
F         -0.75420        2.22380       -3.04060
C         -2.42720        1.58930       -4.56130
F         -1.79050        2.27150       -5.54590
C         -3.66370        0.99950       -4.81370
F         -4.21590        1.07850       -6.05000
C         -4.36210        0.39100       -3.77310
F         -5.60830       -0.09810       -3.99080
C         -3.79810        0.32220       -2.49490
F         -4.58030       -0.11160       -1.48160
C          1.16420       -3.63510        1.35770
S          1.11410       -4.08240        3.12290
C          1.54300       -5.83010        2.85220
H         -0.99630        5.99500       -1.61150
H          0.56330        6.41630       -0.78070
H          0.40840        6.60140       -2.56980
H          0.47920        4.23830        0.43100
H         -1.04040        3.88170       -0.32220
H          2.16740       -3.88070        0.95650
H          0.44390       -4.28560        0.85730
H          0.78450       -6.31340        2.20160
H          2.54610       -5.90790        2.38340
H          1.56270       -6.35260        3.83040
