156
mol55-A-2
C          1.76150       -5.62090       -2.31090
S          0.49140       -4.52950       -1.59860
C          1.57870       -3.06310       -1.51440
Si         0.79550       -1.46840       -0.80860
Si         2.24740       -0.58440        0.89300
C          2.70520       -1.96270        2.17250
C          3.61220       -2.98930        1.77760
F          4.14120       -3.03660        0.53370
C          4.05660       -3.95830        2.68180
F          4.91280       -4.92640        2.26930
C          3.64680       -3.92160        4.00830
F          4.08590       -4.85980        4.88380
C          2.80180       -2.90670        4.43840
F          2.43520       -2.84730        5.74340
C          2.35730       -1.92670        3.54510
F          1.66180       -0.92000        4.07990
C          4.06580       -0.30940        0.40160
C          5.02380       -0.01410        1.40190
F          4.69870       -0.05590        2.71310
C          6.36190        0.22040        1.06830
F          7.25760        0.52930        2.03890
C          6.78560        0.09730       -0.25300
F          8.08530        0.31370       -0.57420
C          5.88350       -0.31670       -1.23030
F          6.31370       -0.53080       -2.49890
C          4.54420       -0.54660       -0.89900
F          3.74910       -1.08570       -1.83250
Si         1.25940        1.48750        1.61950
C          2.21940        3.15800        1.43530
C          3.44570        3.30300        0.74120
F          4.04980        2.27750        0.13580
C          4.13910        4.51760        0.72690
F          5.30320        4.62260        0.03800
C          3.66450        5.60870        1.44310
F          4.35030        6.77890        1.43660
C          2.49520        5.48890        2.18290
F          2.05150        6.54200        2.91400
C          1.78880        4.28280        2.19810
F          0.72100        4.21900        3.02580
C          1.26550        1.58860        3.52040
C          0.08530        1.68120        4.27870
F         -1.10520        1.81100        3.67850
C          0.12560        1.73550        5.67580
F         -1.02920        1.80030        6.38450
C          1.34940        1.75960        6.34060
F          1.38710        1.81880        7.69510
C          2.53250        1.79290        5.60590
F          3.72200        1.91390        6.24640
C          2.49350        1.74370        4.20860
F          3.64710        1.95630        3.53760
Si         0.26760        0.00550       -2.60430
C          1.89000        0.40970       -3.48900
C          2.20710       -0.03780       -4.79490
F          1.40460       -0.88830       -5.47690
C          3.39660        0.36750       -5.41260
F          3.69260       -0.07030       -6.66190
C          4.28030        1.22000       -4.75010
F          5.42780        1.61480       -5.35530
C          3.98600        1.65530       -3.45970
F          4.84540        2.47740       -2.80760
C          2.80710        1.23930       -2.83560
F          2.54870        1.64130       -1.58040
C         -0.83430       -0.71190       -3.99940
C         -1.07800       -2.09600       -4.12880
F         -0.61180       -2.97640       -3.23140
C         -1.80720       -2.60860       -5.20700
F         -2.02470       -3.94430       -5.30310
C         -2.30180       -1.75700       -6.18890
F         -3.01440       -2.25720       -7.22890
C         -2.04610       -0.39240       -6.10890
F         -2.51130        0.43860       -7.07500
C         -1.30300        0.12400       -5.04300
F         -1.07820        1.45130       -5.03410
Si        -0.56910        2.04330       -1.75020
C          0.63210        3.48210       -2.17630
C          0.91100        4.51120       -1.25300
F          0.26590        4.57200       -0.07880
C          1.72940        5.59380       -1.59540
F          1.91560        6.60870       -0.71620
C          2.29730        5.67190       -2.86190
F          3.09720        6.71780       -3.18710
C          1.98870        4.70640       -3.81290
F          2.49550        4.80910       -5.06700
C          1.13340        3.64850       -3.49040
F          0.81970        2.79200       -4.47920
C         -2.16970        2.72020       -2.54840
C         -3.12520        1.85860       -3.11130
F         -3.02350        0.53750       -2.94260
C         -4.24680        2.34850       -3.78600
F         -5.14170        1.48490       -4.32770
C         -4.46620        3.71950       -3.87170
F         -5.56260        4.19500       -4.51300
C         -3.57600        4.59870       -3.26140
F         -3.81330        5.93370       -3.30380
C         -2.44460        4.11160       -2.59690
F         -1.65910        5.01920       -1.97770
Si        -0.88620        1.63020        0.54190
Si        -2.32440       -0.24890        0.81880
C         -2.69960       -0.39590        2.66700
C         -3.97320       -0.14560        3.23400
F         -5.00650        0.32660        2.49790
C         -4.19170       -0.35090        4.60180
F         -5.41410       -0.10390        5.13540
C         -3.15850       -0.80830        5.42020
F         -3.37710       -1.01170        6.74300
C         -1.89760       -1.04450        4.87650
F         -0.88710       -1.48110        5.66890
C         -1.67330       -0.82510        3.51490
F         -0.44600       -1.02730        3.00810
C         -4.06230       -0.11650        0.02020
C         -4.58570        1.10950       -0.44310
F         -3.85860        2.23580       -0.41860
C         -5.89130        1.20290       -0.93700
F         -6.36560        2.39590       -1.37520
C         -6.71160        0.08030       -0.97080
F         -7.97430        0.17330       -1.45700
C         -6.23680       -1.13380       -0.48640
F         -7.04080       -2.22620       -0.50090
C         -4.93880       -1.22960        0.02450
F         -4.54730       -2.42980        0.49180
Si        -1.19120       -2.22550        0.19380
C         -2.12560       -3.42490       -0.96640
C         -3.08310       -2.95750       -1.88130
F         -3.23390       -1.64650       -2.08780
C         -3.84250       -3.83500       -2.65970
F         -4.76720       -3.34650       -3.52380
C         -3.62680       -5.20680       -2.57700
F         -4.35280       -6.05800       -3.34370
C         -2.63470       -5.69810       -1.73310
F         -2.39110       -7.03170       -1.68600
C         -1.88190       -4.82270       -0.94190
F         -0.89720       -5.36540       -0.19370
C         -0.96670       -3.37050        1.72130
C          0.22360       -4.09680        1.93310
F          1.20370       -4.08860        1.01760
C          0.35320       -4.98400        3.00770
F          1.47790       -5.72860        3.14130
C         -0.69590       -5.16120        3.90250
F         -0.56340       -6.01490        4.94800
C         -1.90300       -4.50800        3.68270
F         -2.94760       -4.72160        4.52130
C         -2.05320       -3.65740        2.58330
F         -3.26950       -3.11620        2.39010
C         -1.78010        3.20220        1.16230
S         -3.22920        2.93530        2.24320
C         -3.58630        4.70630        2.46050
H          1.32250       -6.62600       -2.47600
H          2.11030       -5.21650       -3.28390
H          2.61900       -5.71390       -1.61240
H          2.46280       -3.31950       -0.90090
H          1.93490       -2.87150       -2.53010
H         -2.10450        3.78990        0.28300
H         -1.07430        3.82150        1.72240
H         -3.81430        5.17210        1.47910
H         -4.46770        4.81810        3.12420
H         -2.71790        5.21650        2.92680
