48
mol53-E-2
C          4.25110       -6.35190        8.82200
S          3.16280       -6.77920        7.42480
C          4.15270       -5.93050        6.14660
Si         3.35680       -6.12390        4.46470
Si         4.54270       -5.08590        2.88680
C          6.01250       -6.07790        2.50100
N          6.94760       -6.71290        2.25470
C          5.04560       -3.44720        3.48090
N          5.36410       -2.40190        3.86090
Si         3.28630       -4.87470        1.05090
C          4.33640       -5.14290       -0.40450
N          5.00780       -5.31500       -1.33070
C          2.57710       -3.20570        0.99080
N          2.12330       -2.14220        0.95500
Si         3.11440       -8.26290        3.85840
C          1.87400       -9.03790        4.93210
N          1.08140       -9.52940        5.61650
C          4.68840       -9.15540        3.99510
N          5.69250       -9.72390        4.07990
Si         2.43470       -8.35370        1.72940
C          3.83950       -8.76530        0.65720
N          4.73600       -9.02450       -0.02670
C          1.14670       -9.62230        1.57530
N          0.32410      -10.42990        1.47780
Si         1.61760       -6.36690        1.12030
Si         0.18990       -5.72330        2.70670
C         -0.75480       -4.28600        2.12910
N         -1.35520       -3.36870        1.75980
C         -0.94240       -7.09150        3.07850
N         -1.66210       -7.96550        3.31630
Si         1.33720       -5.18040        4.54340
C          1.53260       -3.37840        4.62860
N          1.65920       -2.22980        4.68040
C          0.45040       -5.77050        6.01220
N         -0.11390       -6.14910        6.94840
C          0.69360       -6.45830       -0.50550
S          1.81960       -6.93570       -1.86260
C          0.56900       -6.90450       -3.18520
H          4.38160       -5.25190        8.88730
H          3.79120       -6.71570        9.76340
H          5.24000       -6.83850        8.69220
H          5.15630       -6.40130        6.10940
H          4.28670       -4.84980        6.35970
H          0.28590       -5.45070       -0.72670
H         -0.15900       -7.16010       -0.39660
H         -0.23820       -7.63070       -2.96560
H          0.14290       -5.88440       -3.28290
H          1.05050       -7.18550       -4.14400
