156
mol54-B-2
C         -2.11810       -4.17440       -3.93010
S         -1.94890       -2.46520       -3.33010
C         -0.76780       -2.88670       -2.00760
Si        -0.19310       -1.40290       -0.97230
Si         1.90910       -0.68730       -1.58960
C          3.18580       -1.99720       -1.20660
C          3.72160       -2.81920       -2.21370
C          4.69230       -3.77690       -1.90230
C          5.14460       -3.91450       -0.58790
C          4.62350       -3.09610        0.41550
C          3.64520       -2.14970        0.10250
C          2.08590       -0.41280       -3.43610
C          3.29800        0.07620       -3.95280
C          3.46590        0.25240       -5.32900
C          2.43480       -0.08330       -6.20720
C          1.23860       -0.60020       -5.70850
C          1.06640       -0.76510       -4.33140
Si         2.43670        1.19880       -0.38600
C          2.81260        2.70610       -1.42910
C          3.62530        3.72740       -0.90400
C          3.93230        4.85550       -1.67030
C          3.43610        4.97480       -2.96980
C          2.62850        3.96770       -3.50010
C          2.31810        2.84320       -2.73120
C          4.08420        0.93650        0.47090
C          5.20080        0.53380       -0.28050
C          6.44280        0.34790        0.33270
C          6.59090        0.59400        1.69830
C          5.49960        1.03770        2.44590
C          4.25580        1.21450        1.83330
Si        -1.68960        0.28400       -1.43550
C         -1.73830        0.61110       -3.27720
C         -2.51640       -0.21590       -4.10780
C         -2.58030        0.01850       -5.48450
C         -1.87300        1.08280       -6.04650
C         -1.09770        1.90900       -5.23160
C         -1.03030        1.67020       -3.85670
C         -3.47090       -0.20470       -1.11140
C         -3.82920       -1.52920       -0.82800
C         -5.16640       -1.87650       -0.61650
C         -6.16350       -0.90400       -0.70050
C         -5.82450        0.41200       -1.01760
C         -4.48800        0.75620       -1.23780
Si        -1.17080        2.12020       -0.15360
C         -1.02100        3.67730       -1.18760
C          0.08740        4.52840       -1.07650
C          0.15550        5.71080       -1.81850
C         -0.88660        6.05810       -2.67880
C         -2.00530        5.23080       -2.78390
C         -2.07860        4.05440       -2.03290
C         -2.61900        2.46900        0.97510
C         -3.29490        1.40640        1.57670
C         -4.40200        1.63150        2.39810
C         -4.83630        2.93630        2.63650
C         -4.16790        4.01080        2.04480
C         -3.06750        3.78020        1.21270
Si         0.72160        1.65970        1.07870
Si         0.40310       -0.12820        2.52330
C          1.93520       -0.36220        3.59770
C          2.19210        0.57470        4.61860
C          3.29670        0.43110        5.46240
C          4.15110       -0.66100        5.31470
C          3.89170       -1.61540        4.33180
C          2.78520       -1.47310        3.49030
C         -0.80640        0.25070        3.89780
C         -1.02570       -0.70570        4.90420
C         -1.88420       -0.42920        5.97200
C         -2.50630        0.81730        6.06330
C         -2.25670        1.79090        5.09480
C         -1.40090        1.51130        4.02610
Si        -0.29330       -1.96390        1.27710
C         -1.99340       -2.67160        1.68380
C         -2.92380       -2.01180        2.50060
C         -4.15940       -2.59320        2.79730
C         -4.47420       -3.85860        2.30350
C         -3.54780       -4.54700        1.52100
C         -2.31360       -3.96380        1.22190
C          0.71290       -3.48310        1.69600
C          1.40410       -4.19990        0.71260
C          2.10180       -5.36620        1.03800
C          2.09300       -5.84260        2.35010
C          1.37000       -5.16210        3.33150
C          0.66980       -3.99770        3.00310
C          1.30050        3.16730        2.07640
S          0.02880        4.45450        2.29510
C          1.10160        5.56250        3.26040
H         -2.52560       -4.82170       -3.12590
H         -1.13240       -4.56170       -4.26210
H         -2.81780       -4.18750       -4.79050
H         -1.24340       -3.62170       -1.33190
H          0.10810       -3.36960       -2.46980
H          3.39070       -2.73370       -3.23920
H          5.09560       -4.41060       -2.68140
H          5.89770       -4.65360       -0.34770
H          4.97210       -3.19650        1.43510
H          3.25260       -1.51450        0.87020
H          4.11010        0.33820       -3.29620
H          4.39790        0.64530       -5.71410
H          2.56550        0.04900       -7.27330
H          0.44320       -0.87460       -6.38910
H          0.13930       -1.17590       -3.97760
H          4.03030        3.65570        0.09620
H          4.55720        5.63630       -1.25680
H          3.67320        5.84820       -3.56300
H          2.23760        4.05930       -4.50520
H          1.69540        2.08690       -3.15830
H          5.11320        0.34260       -1.33640
H          7.29070        0.01660       -0.25250
H          7.55310        0.45410        2.17350
H          5.61870        1.25220        3.49980
H          3.44200        1.58250        2.42470
H         -3.08140       -1.04160       -3.69700
H         -3.18060       -0.62430       -6.11510
H         -1.92200        1.26430       -7.11220
H         -0.54370        2.73180       -5.66470
H         -0.42760        2.31490       -3.25400
H         -3.08730       -2.30070       -0.78480
H         -5.43010       -2.90210       -0.39450
H         -7.19850       -1.17240       -0.53340
H         -6.59720        1.16560       -1.09660
H         -4.25250        1.77680       -1.48640
H          0.89920        4.29280       -0.41390
H          1.01740        6.35840       -1.72480
H         -0.83090        6.97130       -3.25690
H         -2.81880        5.50230       -3.44400
H         -2.95450        3.43530       -2.12790
H         -2.96770        0.40480        1.38530
H         -4.91770        0.79520        2.85180
H         -5.68940        3.11480        3.27800
H         -4.50380        5.02300        2.22840
H         -2.56980        4.63000        0.76730
H          1.52760        1.41020        4.78510
H          3.48460        1.16340        6.23660
H          5.00700       -0.77290        5.96740
H          4.54450       -2.47220        4.22520
H          2.60990       -2.24110        2.77170
H         -0.53300       -1.66390        4.86700
H         -2.05960       -1.17850        6.73290
H         -3.17000        1.03300        6.89050
H         -2.72520        2.76360        5.17130
H         -1.21480        2.27720        3.30070
H         -2.71470       -1.05490        2.92220
H         -4.87040       -2.06310        3.41780
H         -5.43040       -4.30930        2.53540
H         -3.78170       -5.53710        1.15220
H         -1.60290       -4.53970        0.64690
H          1.41540       -3.85900       -0.30290
H          2.64850       -5.90030        0.27160
H          2.63410       -6.74510        2.60270
H          1.34430       -5.54100        4.34480
H          0.09460       -3.50290        3.76890
H          1.63200        2.83850        3.07450
H          2.17010        3.61550        1.56070
H          1.97880        5.86790        2.65270
H          0.52630        6.46830        3.54070
H          1.44320        5.05280        4.18520
