180
mol69-B-1
C         -5.66830       -0.66800       -2.11020
S         -4.20810       -1.23750       -1.18610
C         -3.27530        0.29310       -1.42940
Ge        -1.51990        0.22160       -0.58830
Ge         0.11520        1.81890       -1.66790
Ge        -1.16370        3.89050       -2.03530
C         -2.95490        3.71320       -1.35240
C         -1.59360        4.25210       -3.89920
C         -0.43300        5.58980       -1.44520
Ge         0.94780        1.79570       -3.99100
C         -0.36670        1.58640       -5.42180
C          2.25980        0.42580       -4.29060
C          1.84820        3.46160       -4.46100
Ge         2.10680        1.68800       -0.17070
Ge         2.69180        3.93840        0.63500
C          1.49930        4.62690        1.97790
C          2.76830        5.20840       -0.82930
C          4.47550        4.18000        1.39230
Ge         4.34270        1.35690       -1.12930
C          4.86130        2.84810       -2.25910
C          4.67080       -0.23480       -2.14550
C          5.73580        1.18570        0.22810
Ge        -2.03710        0.93220        1.76420
Ge        -4.21410       -0.04780        2.33670
C         -4.38510       -1.95680        2.32220
C         -4.82650        0.54660        4.08050
C         -5.62080        0.42830        1.06910
Ge        -2.82510        3.20350        2.28990
C         -1.72630        4.60440        1.56220
C         -4.64050        3.66830        1.74050
C         -2.97050        3.46810        4.20610
Ge        -0.02740        0.39610        3.14210
Ge         1.08490        2.03690        4.60250
C          1.52880        1.36670        6.37560
C          0.20250        3.71810        5.00780
C          2.86770        2.40560        3.97600
Ge        -0.79850       -0.94830        5.06250
C         -1.98540       -2.36540        4.54160
C         -1.82140        0.11750        6.33690
C          0.56320       -1.78920        6.18410
Ge         1.70730       -0.22200        1.41000
Ge         1.30430       -2.41030        0.25340
Ge         2.87120       -3.42660       -1.33470
C          4.74400       -3.22060       -0.83310
C          2.63910       -5.36130       -1.38250
C          2.63760       -2.91340       -3.19320
Ge         1.68500       -4.16950        1.90370
C          3.59470       -4.42320        2.19620
C          1.01290       -3.70290        3.63230
C          0.97520       -5.92970        1.48030
Ge        -0.91000       -2.20250       -0.78970
Ge        -2.34880       -4.04140       -0.04240
C         -2.11310       -4.59790        1.80330
C         -1.95680       -5.66750       -1.04310
C         -4.24380       -3.75200       -0.39810
Ge        -1.18430       -2.81370       -3.13810
C         -0.32170       -4.45760       -3.71690
C         -0.59510       -1.43280       -4.32250
C         -3.07320       -3.02530       -3.56750
C          3.47080       -0.47230        2.19860
S          3.38000       -1.22660        3.84010
C          5.18100       -1.23280        4.09850
H         -6.09000        0.24290       -1.63640
H         -5.39230       -0.44970       -3.16290
H         -6.43680       -1.46760       -2.09860
H         -3.83230        1.13830       -0.99020
H         -3.15820        0.47760       -2.50710
H         -3.35410        4.70730       -1.06910
H         -3.61470        3.27370       -2.12600
H         -2.90740        3.04210       -0.48830
H         -2.23800        5.15360       -3.94410
H         -2.16070        3.40290       -4.32560
H         -0.68110        4.45550       -4.48610
H          0.25870        5.98360       -2.21640
H          0.09170        5.47490       -0.48810
H         -1.26190        6.31500       -1.31590
H         -1.34730        1.30280       -5.01760
H         -0.02610        0.80450       -6.12990
H         -0.47390        2.53350       -5.98640
H          2.31700       -0.15010       -3.35920
H          1.96360       -0.22830       -5.13280
H          3.22790        0.90070       -4.53850
H          1.51360        3.79440       -5.46400
H          2.94150        3.30620       -4.51370
H          1.60380        4.25030       -3.72940
H          2.07480        4.93850        2.87080
H          0.96360        5.51540        1.59640
H          0.80890        3.80830        2.23600
H          2.35700        6.18580       -0.50570
H          2.19390        4.80490       -1.67610
H          3.82030        5.36140       -1.14250
H          5.24360        4.01700        0.61250
H          4.56650        5.22650        1.74840
H          4.65910        3.51010        2.24990
H          5.55460        3.51570       -1.71030
H          5.36660        2.47050       -3.17100
H          3.96080        3.41200       -2.54510
H          4.75280       -0.01850       -3.22460
H          3.83470       -0.89850       -1.91660
H          5.62840       -0.69060       -1.82650
H          5.48490        1.73920        1.14330
H          5.87170        0.11800        0.49230
H          6.69140        1.57250       -0.18040
H         -3.50300       -2.31960        1.79120
H         -4.45840       -2.36620        3.34450
H         -5.30940       -2.24470        1.78420
H         -5.58540        1.34520        3.96340
H         -5.27680       -0.30440        4.63070
H         -3.96870        0.93800        4.64800
H         -5.67460       -0.33380        0.26610
H         -5.43890        1.40730        0.60510
H         -6.59500        0.45230        1.59850
H         -0.97710        4.11580        0.91920
H         -1.25660        5.18590        2.37660
H         -2.34690        5.30090        0.96610
H         -5.37340        3.04680        2.28930
H         -4.82610        4.72930        2.00500
H         -4.78890        3.55620        0.65270
H         -4.02350        3.34000        4.52650
H         -2.34440        2.71960        4.71360
H         -2.64910        4.49520        4.47260
H          2.09780        2.15020        6.91660
H          2.17410        0.47220        6.28850
H          0.61710        1.14440        6.95690
H         -0.50030        3.57360        5.85250
H          0.96540        4.46350        5.31160
H         -0.33410        4.09640        4.12840
H          3.58000        1.67370        4.40460
H          2.85460        2.30740        2.88530
H          3.17650        3.42380        4.28520
H         -2.01760       -2.34830        3.44560
H         -2.98310       -2.18180        4.98330
H         -1.61600       -3.34390        4.90300
H         -1.66070        1.19360        6.15440
H         -1.49110       -0.11890        7.36830
H         -2.89660       -0.13120        6.27060
H          1.55370       -1.72730        5.71460
H          0.30540       -2.85480        6.34810
H          0.60570       -1.29290        7.17360
H          5.08770       -4.11020       -0.27140
H          5.36040       -3.13460       -1.75080
H          4.87950       -2.32280       -0.20410
H          3.24560       -5.83690       -0.58970
H          2.98370       -5.75150       -2.36150
H          1.57580       -5.62310       -1.24190
H          1.74340       -2.28030       -3.25980
H          3.52810       -2.38070       -3.57810
H          2.49760       -3.81570       -3.81970
H          4.13460       -3.47530        2.01580
H          3.77050       -4.74810        3.24170
H          3.98200       -5.20810        1.52000
H          1.83420       -3.72750        4.37490
H          0.22550       -4.41500        3.94590
H          0.62000       -2.68550        3.52210
H          1.79150       -6.59910        1.14460
H          0.51110       -6.37050        2.38560
H          0.21880       -5.84410        0.68680
H         -3.03490       -4.43370        2.39350
H         -1.27300       -4.03010        2.22360
H         -1.88400       -5.68050        1.84540
H         -2.24420       -6.55210       -0.43940
H         -2.54110       -5.68680       -1.98160
H         -0.87930       -5.72290       -1.27710
H         -4.52650       -4.22110       -1.35990
H         -4.84260       -4.22730        0.40500
H         -4.46810       -2.67150       -0.44450
H          0.15500       -4.29860       -4.70520
H         -1.07150       -5.26680       -3.81660
H          0.44400       -4.75270       -2.98520
H         -1.42940       -1.11930       -4.98020
H          0.24050       -1.79420       -4.95230
H         -0.28500       -0.60830       -3.67010
H         -3.37790       -4.08000       -3.43300
H         -3.24690       -2.74610       -4.62650
H         -3.68480       -2.37400       -2.91620
H          4.05830       -1.12090        1.52650
H          3.97930        0.49950        2.27500
H          5.57240       -0.19430        4.08090
H          5.40180       -1.68340        5.08760
H          5.67890       -1.83470        3.31020
