84
mol64-B-0
C          4.86390       -2.60740        2.90850
S          3.14710       -2.21810        2.44870
C          3.59880       -0.80400        1.39670
Ge         1.99580       -0.01180        0.63570
Ge         0.50160        0.68730        2.36740
C         -0.18410       -0.83570        3.32020
C         -0.96530       -1.72640        2.71380
C          1.44000        1.82200        3.60400
C          2.46910        1.35850        4.31120
Ge        -1.29900        1.91880        1.38760
C         -1.19710        3.76990        1.90050
C         -0.13200        4.50800        1.59840
C         -2.97580        1.22470        2.01960
C         -3.22400        1.13070        3.32470
Ge         0.92860       -1.52740       -0.87970
C          0.64570       -3.23980       -0.05090
C          0.25160       -4.28760       -0.77190
C          2.09100       -1.74530       -2.39580
C          3.27810       -2.33410       -2.26180
Ge        -1.16280       -0.59990       -1.59390
C         -2.63580       -1.51510       -0.76330
C         -2.91290       -2.78170       -1.06620
C         -1.33060       -0.76360       -3.50310
C         -2.42640       -0.33830       -4.12920
Ge        -1.21380        1.71400       -0.99860
Ge         0.78930        2.69060       -1.88650
C          0.70760        4.61470       -1.83830
C         -0.20400        5.28800       -2.53780
C          1.03240        2.07440       -3.69580
C          0.09160        2.24540       -4.62290
Ge         2.66710        1.90650       -0.61320
C          3.29890        3.25230        0.61020
C          3.78390        4.41100        0.16750
C          4.06760        1.35300       -1.81550
C          5.32580        1.76310       -1.66110
C         -2.81490        2.50790       -1.76770
S         -3.10560        4.15030       -1.03910
C         -4.61130        4.47250       -2.00830
H          4.86690       -3.48850        3.58220
H          5.32030       -1.74680        3.44040
H          5.45700       -2.84650        2.00130
H          4.26060       -1.13730        0.57120
H          4.12200       -0.03290        1.99900
H          0.06930       -0.96160        4.36740
H         -1.23100       -1.60770        1.67040
H         -1.34580       -2.58100        3.26290
H          1.12350        2.85220        3.72360
H          2.99080        2.01140        5.00270
H          2.79440        0.32870        4.21090
H         -2.02740        4.21390        2.43950
H         -0.09120        5.55190        1.88990
H          0.70360        4.07510        1.06490
H         -3.73170        0.92730        1.30160
H         -4.17740        0.74550        3.67020
H         -2.47960        1.43310        4.05450
H          0.81430       -3.35150        1.01370
H          0.09520       -5.24870       -0.29340
H          0.08650       -4.19550       -1.84060
H          1.78240       -1.36730       -3.36380
H          3.60400       -2.71520       -1.29940
H          3.93190       -2.44020       -3.12100
H         -3.25180       -0.98630       -0.04660
H         -2.31990       -3.32080       -1.79700
H         -3.74790       -3.28420       -0.58940
H         -0.52350       -1.20920       -4.07320
H         -2.50760       -0.43330       -5.20690
H         -3.24820        0.10230       -3.57470
H          1.41870        5.15900       -1.22870
H         -0.23090        6.37160       -2.49220
H         -0.93100        4.77110       -3.15290
H          1.95310        1.56600       -3.95820
H         -0.84450        2.73560       -4.38690
H          0.25200        1.87970       -5.63160
H          3.26150        3.05490        1.67570
H          4.13520        5.15760        0.87180
H          3.84070        4.61890       -0.89610
H          3.82520        0.66580       -2.61800
H          6.09420        1.42170       -2.34670
H          5.60510        2.42830       -0.85200
H         -3.67690        1.84550       -1.54520
H         -2.68750        2.59110       -2.86530
H         -4.37240        4.47750       -3.09230
H         -5.37590        3.69670       -1.79510
H         -5.01770        5.46510       -1.72580
