60
mol65-B-2
C         -0.05160       -9.98580        3.56900
S         -1.10900       -8.50690        3.64630
C          0.21850       -7.35660        3.16930
Ge        -0.48150       -5.54550        3.11540
Ge        -2.40040       -5.40270        1.70570
C         -2.07360       -6.28640        0.06520
C         -1.86050       -6.84580       -0.98030
C         -3.87310       -6.18330        2.60030
C         -4.80910       -6.67520        3.17770
Ge        -2.85510       -3.09490        1.29090
C         -2.04010       -2.57320       -0.33440
C         -1.51360       -2.24120       -1.36580
C         -4.72900       -2.85170        1.19790
C         -5.92310       -2.70080        1.14340
Ge         1.16620       -4.02260        2.30590
C          1.32010       -4.22400        0.43120
C          1.40960       -4.35380       -0.76310
C          2.82090       -4.37740        3.15090
C          3.87180       -4.60420        3.69460
Ge         0.45290       -1.80150        2.81850
C          1.24100       -1.24440        4.44550
C          1.73750       -0.89540        5.48620
C          0.93900       -0.63620        1.41010
C          1.24410        0.10330        0.50930
Ge        -1.91960       -1.80080        3.07090
Ge        -2.42460       -2.86980        5.14430
C         -4.26620       -3.30080        5.17850
C         -5.43890       -3.57580        5.19110
C         -1.97520       -1.72060        6.57840
C         -1.68430       -0.98670        7.48830
Ge        -1.12160       -4.86560        5.30930
C          0.43970       -4.51860        6.31960
C          1.43720       -4.29250        6.95610
C         -2.14850       -6.23200        6.11940
C         -2.80640       -7.10250        6.63010
C         -2.55670        0.03870        3.02740
S         -4.38180        0.07770        3.03530
C         -4.54430        1.89040        2.99030
H          0.34960      -10.11480        2.54220
H         -0.65680      -10.87720        3.83260
H          0.78610       -9.89390        4.29120
H          1.04550       -7.39790        3.90830
H          0.60320       -7.61830        2.16180
H         -1.67190       -7.33700       -1.89830
H         -5.63060       -7.10570        3.68690
H         -1.04860       -1.95010       -2.27070
H         -6.97190       -2.56790        1.09680
H          1.48550       -4.46770       -1.81230
H          4.79420       -4.80340        4.17310
H          2.17210       -0.59090        6.40160
H          1.51140        0.75220       -0.28260
H         -6.46880       -3.81810        5.19990
H         -1.42780       -0.34160        8.28690
H          2.31410       -4.09220        7.51340
H         -3.38500       -7.86720        7.07770
H         -2.11860        0.60100        3.87790
H         -2.20090        0.50260        2.08480
H         -4.04680        2.34240        3.87000
H         -5.62060        2.15670        3.01380
H         -4.09610        2.29030        2.05730
