60
mol65-A-0
C          5.22370        0.18060        3.60210
S          3.48210       -0.22370        3.26350
C          3.60590        0.09500        1.47570
Ge         1.88220       -0.22490        0.63960
Ge         1.97790        0.39530       -1.66110
C          3.54700       -0.31600       -2.44250
C          4.54480       -0.77490       -2.93760
C          1.96660        2.28270       -1.78820
C          1.95300        3.48490       -1.86340
Ge         0.05430       -0.49560       -2.76160
C         -0.55920        0.72920       -4.06600
C         -0.95170        1.51330       -4.89200
C          0.48870       -2.15570       -3.55800
C          0.76560       -3.21640       -4.05750
Ge         0.17620        1.06970        1.69250
C          0.79700        2.83730        1.95320
C          1.19510        3.96290        2.11350
C         -0.26640        0.26900        3.34830
C         -0.54720       -0.24870        4.39910
Ge        -1.74490        1.08540        0.27270
C         -3.31120        1.04380        1.33270
C         -4.30710        1.01180        2.00990
C         -1.71920        2.63420       -0.81320
C         -1.69660        3.61720       -1.50920
Ge        -1.65070       -0.84340       -1.13100
Ge        -1.03770       -2.72550        0.20200
C         -1.32750       -4.31520       -0.78130
C         -1.50990       -5.32490       -1.41250
C         -2.07740       -2.72170        1.78230
C         -2.73910       -2.71050        2.78890
Ge         1.27550       -2.53050        0.76590
C          2.31630       -3.50600       -0.47650
C          2.97760       -4.12130       -1.27360
C          1.55260       -3.18190        2.52030
C          1.72560       -3.59230        3.63970
C         -3.35110       -1.15090       -2.01800
S         -4.61410       -1.57750       -0.77850
C         -5.95270       -1.76520       -1.99680
H          5.43400        1.23200        3.31510
H          5.89080       -0.50370        3.03760
H          5.41910        0.05860        4.68710
H          3.89580        1.15150        1.29810
H          4.35640       -0.58150        1.01660
H          5.42090       -1.17880       -3.37220
H          1.93860        4.54100       -1.92810
H         -1.29680        2.20280       -5.61680
H          1.00930       -4.14910       -4.49360
H          1.54510        4.95170        2.25340
H         -0.79410       -0.70590        5.32090
H         -5.18190        0.98220        2.60440
H         -1.67430        4.47960       -2.12190
H         -1.66960       -6.21130       -1.96790
H         -3.31970       -2.69810        3.67340
H          3.55760       -4.66000       -1.97570
H          1.87740       -3.95120        4.62340
H         -3.22970       -1.98620       -2.73840
H         -3.64290       -0.22770       -2.56050
H         -5.69990       -2.56770       -2.72070
H         -6.11390       -0.80890       -2.53670
H         -6.88760       -2.04060       -1.46730
