180
mol60-C-0
C         -3.50480        5.51560       -1.36820
S         -2.64250        3.96840       -1.78320
C         -2.33500        3.50430       -0.05190
Ge        -1.37350        1.80600        0.06430
Ge        -0.94600        1.41060        2.41430
C         -2.62560        0.73100        3.18050
C         -3.34670        1.68740        4.14940
C         -4.04200        2.83560        3.40590
C         -4.38220        0.91500        4.97780
C         -0.46560        3.20000        3.13820
C          0.87740        3.31900        3.87560
C          1.25930        4.79510        4.05230
C          0.81750        2.64680        5.24810
Ge         0.60340       -0.45740        2.57120
C          2.44480        0.13010        2.96750
C          3.39240       -0.99500        3.46270
C          4.27280       -1.53540        2.33730
C          4.28650       -0.49560        4.60810
C          0.06480       -1.73670        3.97140
C          0.39350       -1.31280        5.42430
C          0.86390       -2.52180        6.24680
C         -0.81830       -0.67610        6.11850
Ge        -2.83260        0.13000       -0.83720
C         -4.61630        0.70850       -0.21310
C         -5.67210       -0.41400       -0.10590
C         -6.07020       -0.66670        1.35680
C         -6.93060       -0.08220       -0.92020
C         -2.74010        0.36270       -2.79130
C         -4.00560       -0.09270       -3.55550
C         -3.63530       -0.89280       -4.81360
C         -4.87010        1.10930       -3.97140
Ge        -1.91340       -2.03210       -0.17980
C         -1.90250       -3.13010       -1.82540
C         -2.93020       -4.27310       -1.99570
C         -4.37760       -3.78440       -1.99700
C         -2.64410       -5.02460       -3.30410
C         -2.95990       -2.75960        1.32440
C         -2.71570       -4.25910        1.63630
C         -4.04330       -5.00580        1.82920
C         -1.83250       -4.45870        2.86820
Ge         0.42930       -1.66790        0.46480
Ge         1.57630       -0.40810       -1.26590
C          1.23780       -1.24780       -3.02010
C          1.58390       -2.75060       -3.11810
C          0.84320       -3.38020       -4.30850
C          3.08730       -3.00460       -3.27810
C          3.50990       -0.38460       -0.88450
C          4.39840        0.10590       -2.05290
C          4.57930        1.62830       -2.03290
C          5.78160       -0.55920       -1.99030
Ge         0.71060        1.85810       -1.15530
C          0.41210        2.69220       -2.92360
C          1.37760        2.22010       -4.03840
C          0.60780        1.55060       -5.18770
C          2.21510        3.38050       -4.59390
C          1.90240        2.91070        0.00000
C          2.20900        4.33090       -0.51130
C          3.43280        4.89910        0.21810
C          1.01430        5.27570       -0.32710
C          1.44370       -3.33080        0.69910
S          0.52490       -4.79930        0.14740
C          1.85190       -5.97020        0.56860
H         -3.82080        6.01600       -2.30610
H         -4.40470        5.29860       -0.75560
H         -2.82470        6.19320       -0.81100
H         -3.30820        3.39090        0.46340
H         -1.75270        4.29910        0.45080
H         -2.38410       -0.20430        3.71170
H         -3.29200        0.43190        2.35880
H         -2.60780        2.10820        4.86320
H         -4.85240        2.44900        2.75300
H         -4.48630        3.54510        4.13590
H         -3.32280        3.39970        2.78360
H         -3.88470        0.12040        5.57370
H         -4.89730        1.59940        5.68520
H         -5.14120        0.44380        4.31670
H         -0.44190        3.88070        2.26670
H         -1.26930        3.57950        3.79620
H          1.66970        2.85540        3.26140
H          0.48600        5.33420        4.64110
H          1.36410        5.28920        3.06470
H          2.23460        4.87960        4.57770
H          0.04960        3.12600        5.89280
H          0.56240        1.58470        5.12740
H          1.80550        2.70750        5.75200
H          2.86060        0.66980        2.09490
H          2.34860        0.86900        3.77780
H          2.80260       -1.84380        3.85800
H          3.63690       -1.95230        1.54310
H          4.92180       -2.35480        2.71340
H          4.91670       -0.73370        1.91650
H          4.90660        0.36360        4.27270
H          3.66570       -0.17400        5.47120
H          4.95720       -1.30890        4.95890
H         -1.01060       -1.96300        3.86420
H          0.60950       -2.67070        3.73200
H          1.22420       -0.58140        5.42510
H          1.78670       -2.95470        5.80580
H          0.07710       -3.30650        6.27280
H          1.09950       -2.21310        7.28780
H         -1.15160        0.22670        5.57810
H         -1.66540       -1.39370        6.16860
H         -0.55040       -0.36710        7.15130
H         -4.95220        1.50550       -0.90280
H         -4.50110        1.23570        0.74920
H         -5.25190       -1.34480       -0.51980
H         -6.58690        0.22160        1.78010
H         -5.17980       -0.87580        1.98070
H         -6.74970       -1.54300        1.42260
H         -7.39750        0.85740       -0.55370
H         -6.68080        0.03980       -1.99270
H         -7.67040       -0.90680       -0.83690
H         -2.55470        1.43040       -2.99490
H         -1.84300       -0.17350       -3.14470
H         -4.61340       -0.74860       -2.90340
H         -4.55390       -1.20630       -5.35410
H         -3.07400       -1.80970       -4.54900
H         -3.00800       -0.27940       -5.49620
H         -5.82070        0.75740       -4.42600
H         -4.33290        1.73950       -4.71280
H         -5.12060        1.74460       -3.10120
H         -1.98020       -2.43810       -2.67980
H         -0.90150       -3.58110       -1.88150
H         -2.81560       -5.01450       -1.18760
H         -5.06860       -4.63140       -2.19470
H         -4.64060       -3.38260       -1.00670
H         -4.53470       -3.01600       -2.77790
H         -3.34260       -5.88080       -3.41960
H         -2.75840       -4.34960       -4.17950
H         -1.60920       -5.42930       -3.29750
H         -4.01900       -2.60530        1.05690
H         -2.77280       -2.13030        2.21680
H         -2.18490       -4.73670        0.80060
H         -4.65890       -4.94160        0.90760
H         -3.85690       -6.08130        2.03670
H         -4.61600       -4.56910        2.67560
H         -2.28320       -3.97890        3.76300
H         -0.83110       -4.03680        2.67080
H         -1.69750       -5.54170        3.07640
H          1.77580       -0.70460       -3.81830
H          0.15740       -1.11650       -3.20400
H          1.25570       -3.26100       -2.19590
H          1.00990       -4.47840       -4.32850
H         -0.24950       -3.20600       -4.23540
H          1.20210       -2.94320       -5.26530
H          3.61570       -2.79180       -2.33550
H          3.27650       -4.07490       -3.50850
H          3.51330       -2.38750       -4.09770
H          3.78290       -1.42220       -0.62310
H          3.70010        0.22180        0.01900
H          3.93630       -0.17730       -3.01980
H          5.08980        1.95290       -1.10080
H          3.60460        2.13780       -2.09720
H          5.18570        1.95450       -2.90460
H          6.28700       -0.31890       -1.03000
H          6.41800       -0.20610       -2.82990
H          5.69090       -1.66160       -2.07710
H          0.44880        3.79290       -2.81250
H         -0.62970        2.47040       -3.20900
H          2.08510        1.47950       -3.63020
H          1.31740        1.12870       -5.93120
H         -0.05200        2.28620       -5.69630
H         -0.02390        0.72290       -4.80440
H          1.55870        4.17100       -5.01710
H          2.89490        3.01450       -5.39290
H          2.84380        3.82430       -3.79690
H          2.84330        2.34330        0.11790
H          1.44570        2.96550        1.00250
H          2.46080        4.28330       -1.58780
H          3.25150        4.94210        1.31360
H          3.66050        5.92230       -0.14990
H          4.32310        4.26240        0.02770
H          1.25370        6.27810       -0.74130
H          0.75980        5.38750        0.74620
H          0.12480        4.89600       -0.86100
H          2.37630       -3.25700        0.10590
H          1.70380       -3.44390        1.77020
H          1.51900       -6.99840        0.31870
H          2.76610       -5.73650       -0.01580
H          2.07550       -5.91880        1.65460
