72
mol62-C-0
C          3.27770       -3.58640       -2.47660
S          1.71660       -2.91840       -1.82260
C          2.47980       -1.42220       -1.12730
Ge         1.13690       -0.30800       -0.26420
Ge        -0.47840        0.50860       -1.87950
C         -1.66880       -0.84580       -2.62640
F         -2.29370       -0.33470       -3.74710
F         -0.94570       -1.96310       -2.98870
F         -2.63170       -1.19320       -1.70780
C          0.44580        1.20160       -3.45130
F          1.11390        0.16770       -4.07820
F         -0.47420        1.74660       -4.32560
F          1.35210        2.17030       -3.09150
Ge        -1.82780        2.19900       -0.82220
C         -3.72890        1.91860       -1.15690
F         -4.15430        0.74670       -0.57800
F         -4.44460        2.97260       -0.62270
F         -3.95460        1.85750       -2.51820
C         -1.47000        3.90500       -1.70010
F         -1.99730        4.93970       -0.95570
F         -2.05930        3.90690       -2.94920
F         -0.11550        4.08690       -1.85430
Ge         2.36080        1.54970        0.69130
C          3.86490        0.91310        1.75840
F          4.80910        0.34760        0.92350
F          4.43200        1.97650        2.43370
F          3.45020       -0.02890        2.66860
C          3.22660        2.64740       -0.66790
F          3.66470        1.84370       -1.70200
F          4.31180        3.29710       -0.11250
F          2.34690        3.59130       -1.14740
Ge         0.86560        2.90100        2.00360
C          1.35480        2.78480        3.88610
F          1.76370        1.50660        4.19340
F          2.39570        3.65590        4.14300
F          0.27000        3.13340        4.66710
C          1.09970        4.79550        1.59690
F          0.58480        5.55400        2.63020
F          0.44750        5.12360        0.43160
F          2.44600        5.07350        1.46200
Ge        -1.39280        2.14950        1.56380
Ge        -1.69250       -0.09850        2.41160
C         -1.65050       -0.11500        4.36210
F         -1.64170       -1.42160        4.81050
F         -2.77360        0.52610        4.84770
F         -0.53010        0.52900        4.82890
C         -3.46090       -0.81510        2.00960
F         -4.39650        0.19880        2.07280
F         -3.46930       -1.38380        0.75610
F         -3.78620       -1.78570        2.93700
Ge         0.00110       -1.53360        1.48670
C          1.20120       -2.13100        2.90080
F          2.40310       -2.52910        2.34850
F          1.41320       -1.11510        3.80560
F          0.63120       -3.20100        3.56310
C         -0.77850       -3.19780        0.82920
F         -1.35530       -3.00670       -0.40430
F          0.21020       -4.15650        0.72040
F         -1.73740       -3.63940        1.71980
C         -2.68390        3.24180        2.52810
S         -2.51740        4.99000        2.05870
C         -3.85120        5.56200        3.15650
H          3.07470       -4.55450       -2.97840
H          3.71350       -2.88290       -3.21640
H          3.99730       -3.75480       -1.64860
H          2.96180       -0.83420       -1.93530
H          3.24110       -1.70540       -0.37140
H         -3.70450        2.88130        2.28480
H         -2.50020        3.12580        3.61620
H         -3.95830        6.66120        3.05300
H         -4.81030        5.07950        2.87490
H         -3.60550        5.32280        4.21210
