72
mol62-E-0
C         -1.00530       -3.71340        5.23860
S         -0.28220       -2.29240        4.36170
C         -0.81950       -2.84910        2.71680
Ge        -0.25190       -1.58590        1.34870
Ge        -1.16040       -2.43660       -0.72810
C         -0.41570       -4.17330       -1.20930
F         -1.30870       -4.84910       -2.01800
F          0.76490       -4.00950       -1.89800
F         -0.19460       -4.91500       -0.06550
C         -3.06570       -2.81610       -0.54710
F         -3.73050       -1.72900       -0.03330
F         -3.59230       -3.12500       -1.78630
F         -3.23740       -3.89190        0.30230
Ge        -0.74630       -0.85260       -2.48960
C         -2.43420       -0.10170       -3.10930
F         -2.19890        1.10530       -3.73860
F         -3.02050       -0.97300       -4.00680
F         -3.29190        0.08100       -2.04800
C         -0.04360       -1.74380       -4.07740
F          1.29910       -2.00250       -3.93170
F         -0.72000       -2.93170       -4.27490
F         -0.22880       -0.93180       -5.17950
Ge        -1.14260        0.62000        1.79470
C         -0.67170        1.25340        3.57980
F          0.63130        0.93070        3.87860
F         -1.50610        0.66540        4.51050
F         -0.82860        2.62440        3.63720
C         -3.09050        0.66820        1.80350
F         -3.57790       -0.48330        2.39040
F         -3.56950        0.77940        0.51750
F         -3.51790        1.76230        2.53060
Ge        -0.30130        2.11030        0.10500
C          0.89650        3.42000        0.91260
F          1.74610        3.92640       -0.05120
F          0.15390        4.45530        1.44660
F          1.62720        2.83610        1.92260
C         -1.72410        3.22110       -0.63520
F         -1.16700        4.21230       -1.41980
F         -2.57780        2.46780       -1.40420
F         -2.43660        3.80230        0.39580
Ge         0.77920        0.82240       -1.63750
Ge         2.77200       -0.24760       -0.76100
C          3.67630       -1.46260       -1.99190
F          4.94220       -1.73750       -1.51270
F          3.78700       -0.87880       -3.23680
F          2.98000       -2.64430       -2.09320
C          4.13510        1.09520       -0.38220
F          4.52110        1.69680       -1.56430
F          5.23140        0.48950        0.20030
F          3.64520        2.05420        0.47190
Ge         2.16800       -1.48570        1.21360
C          3.05570       -0.66440        2.74580
F          2.90910        0.70240        2.70540
F          2.52360       -1.15570        3.91970
F          4.40330       -0.96400        2.70560
C          2.90750       -3.29040        1.18820
F          2.36220       -4.02210        0.16020
F          4.27700       -3.22670        1.02000
F          2.62390       -3.91460        2.38750
C          1.23510        2.11020       -3.02440
S          1.98220        1.27110       -4.45350
C          2.21590        2.79980       -5.41260
H         -2.10300       -3.74340        5.07660
H         -0.80550       -3.60800        6.32460
H         -0.54620       -4.65760        4.87880
H         -1.92610       -2.92490        2.68880
H         -0.37520       -3.84010        2.49010
H          0.30800        2.63290       -3.33810
H          1.95010        2.84640       -2.60290
H          2.88290        3.49650       -4.86350
H          2.68330        2.54770       -6.38640
H          1.23600        3.28630       -5.59980
