72
mol6-B-2
C         -4.43070        3.44330       -0.26550
S         -3.99080        1.75400        0.25930
C         -2.22060        1.86540       -0.20920
C         -1.11050        0.72090       -0.04940
C         -1.15570        0.11200        1.60460
C         -2.55310       -0.47510        2.24610
F         -3.66070        0.31090        1.97380
F         -2.86480       -1.76080        1.96630
F         -2.55200       -0.52080        3.63210
C         -1.11030        1.36820        2.69220
F         -2.31580        2.03980        2.79130
F         -0.86950        1.00710        4.00040
F         -0.23530        2.35100        2.48570
C          0.04790       -1.08550        1.73230
C         -0.36360       -2.52560        2.43930
F         -1.10000       -3.39580        1.76060
F          0.74580       -3.28350        2.76590
F         -1.07400       -2.40950        3.61920
C          1.03490       -0.66990        2.99840
F          2.17490       -1.42160        3.12530
F          0.46440       -0.86680        4.24460
F          1.40500        0.62850        3.08600
C         -1.64660       -0.51550       -1.21270
C         -3.29200       -0.78100       -1.10050
F         -4.03810        0.26860       -1.61860
F         -3.84670       -0.95870        0.09680
F         -3.75270       -1.88280       -1.79300
C         -1.76890       -0.17770       -2.83670
F         -2.56530       -1.06380       -3.54370
F         -0.63220       -0.25070       -3.56850
F         -2.38410        1.02580       -3.13300
C         -0.63250       -1.85480       -1.01680
C         -0.01220       -2.55180       -2.40240
F          0.49780       -3.82300       -2.17760
F         -0.92690       -2.74130       -3.41870
F          0.98980       -1.95420       -3.04400
C         -1.57460       -3.19200       -0.71500
F         -2.61830       -3.03190        0.13240
F         -0.87360       -4.31500       -0.31240
F         -2.24200       -3.68010       -1.82650
C          0.66630       -1.36840        0.09950
C          1.55110        0.02880       -0.51150
C          3.00990        0.18520        0.26960
F          3.95180       -0.73410       -0.15710
F          3.66070        1.38360        0.06910
F          3.03500        0.04760        1.59430
C          2.27590       -0.01550       -1.98850
F          2.97020       -1.18960       -2.22970
F          3.25600        0.95150       -2.15590
F          1.49780        0.24680       -3.06280
C          0.48650        1.35680       -0.46670
C          1.22210        2.55880        0.40730
F          2.25550        3.19050       -0.26350
F          1.84360        2.19150        1.55160
F          0.42760        3.63500        0.70970
C          0.38100        2.31150       -1.81600
F         -0.28190        1.86750       -2.87600
F         -0.25940        3.50980       -1.55980
F          1.59620        2.66950       -2.36860
C          1.63970       -2.64120        0.08950
S          3.09880       -2.91850        1.16650
C          3.54430       -4.54100        0.46540
H         -3.83850        4.18870        0.30490
H         -4.24530        3.56740       -1.35260
H         -5.50820        3.61400       -0.06510
H         -2.27400        2.16940       -1.25690
H         -1.90550        2.74120        0.35440
H          2.06010       -2.76320       -0.91110
H          1.05210       -3.53420        0.29240
H          2.71150       -5.26120        0.60560
H          4.44200       -4.92620        0.99060
H          3.77750       -4.44080       -0.61490
