36
mol68-C-2
C         -3.08140       -1.02370       -4.17580
S         -2.26360       -2.24240       -3.09980
C         -2.97900       -1.64260       -1.53170
Ge        -2.34540       -2.71090       -0.02990
Ge         0.00050       -2.29800        0.19960
Ge         1.17750       -3.35970       -1.59190
Ge         0.41010        0.05760        0.11010
Ge         0.75300       -3.17270        2.29540
Ge         2.90540       -4.18660        2.04520
Ge         0.89700       -1.40070        3.89690
Ge        -3.42970       -2.10620        2.02360
Ge        -5.81350       -2.11780        1.80210
Ge        -2.72070        0.08600        2.66640
Ge        -2.82200       -3.68430        3.71920
Ge        -4.57210       -5.29210        3.99320
Ge        -2.48410       -2.53910        5.79320
Ge        -0.82520       -4.80810        3.03590
Ge        -1.34870       -6.25460        1.20600
Ge        -2.57500       -8.14730        2.00460
Ge         0.68460       -7.01350        0.19990
Ge        -2.65350       -5.05390       -0.40220
Ge        -1.92660       -5.64790       -2.60440
Ge        -4.96720       -5.60550       -0.14180
C         -0.09050       -5.88560        4.47710
S          0.55840       -4.80390        5.78860
C          1.10490       -6.17710        6.84980
H         -4.18380       -1.13060       -4.10620
H         -2.78270        0.00170       -3.88510
H         -2.76910       -1.20160       -5.22490
H         -2.74840       -0.57350       -1.34430
H         -4.08110       -1.75270       -1.58840
H          0.72770       -6.51310        4.06670
H         -0.89370       -6.53690        4.88000
H          1.56330       -5.76230        7.77070
H          1.86030       -6.79270        6.31840
H          0.23730       -6.80870        7.13340
