180
mol60-B-2
C         -2.66980       -0.28840        5.58970
S         -1.22770       -0.36780        4.48380
C         -2.21190       -0.26610        2.95540
Ge        -1.08090       -0.31310        1.35670
Ge        -1.99370       -1.93760       -0.21020
C         -3.92370       -1.68450       -0.55550
C         -4.77710       -1.23350        0.64630
C         -5.07940       -2.37410        1.62450
C         -6.09460       -0.61430        0.15890
C         -1.69740       -3.66240        0.68280
C         -2.71400       -4.77200        0.34720
C         -2.50180       -5.31810       -1.05900
C         -2.60540       -5.91030        1.37010
Ge        -0.70780       -1.76350       -2.29310
C         -0.01550       -3.47620       -3.00410
C         -0.81120       -4.22240       -4.10430
C         -0.55510       -3.64720       -5.50820
C         -0.39980       -5.70450       -4.12320
C         -1.45690       -0.60210       -3.70790
C         -2.97670       -0.59300       -3.98180
C         -3.60080       -1.98410       -4.11260
C         -3.26930        0.22760       -5.24490
Ge         1.03990       -1.10190        2.18820
C          0.65570       -2.74930        3.20260
C          1.67030       -3.09990        4.31900
C          0.96010       -3.81450        5.47840
C          2.80740       -3.98720        3.80440
C          1.91910        0.29550        3.27310
C          1.02680        0.97930        4.33280
C          1.69070        2.27750        4.81440
C          0.75190        0.08110        5.54400
Ge         2.41120       -1.59520        0.26690
C          2.58300       -3.55850        0.13400
C          3.10710       -4.08980       -1.21110
C          2.82530       -5.59320       -1.33730
C          4.60010       -3.82350       -1.42390
C          4.11830       -0.66680        0.57180
C          4.91320       -1.11060        1.81930
C          5.85690       -2.28010        1.51970
C          5.72530        0.06750        2.37820
Ge         1.35820       -0.61180       -1.70710
Ge         0.89680        1.75840       -1.36680
C          2.48490        2.67390       -0.64010
C          3.81970        2.32460       -1.33120
C          3.89650        2.80240       -2.78330
C          4.99280        2.90740       -0.53210
C          0.22630        2.60980       -3.02790
C          0.69640        4.06320       -3.30800
C         -0.39120        5.09520       -2.98090
C          1.10690        4.22620       -4.78050
Ge        -0.89700        1.83400        0.25470
C         -2.61580        1.87030       -0.69150
C         -3.19290        3.26770       -0.95830
C         -3.99940        3.27610       -2.26400
C         -4.08860        3.72360        0.20250
C         -0.57350        3.22000        1.62210
C         -0.03130        4.56720        1.08200
C         -1.07710        5.68720        1.17470
C          1.22730        5.00630        1.84800
C          2.64120       -0.80170       -3.18030
S          1.90630       -0.28520       -4.76090
C          3.40070       -0.63040       -5.73970
H         -3.35530       -1.13690        5.38420
H         -2.32290       -0.35260        6.64120
H         -3.20640        0.67270        5.44650
H         -2.81740        0.65680        2.94100
H         -2.92000       -1.11080        2.92850
H         -3.98280       -0.88980       -1.30820
H         -4.35040       -2.60170       -1.01080
H         -4.23620       -0.44050        1.18200
H         -5.66420       -1.98920        2.48700
H         -4.14480       -2.80810        2.02770
H         -5.67000       -3.17190        1.12600
H         -6.70270       -0.27100        1.02320
H         -5.89150        0.26960       -0.48350
H         -6.68280       -1.35500       -0.42450
H         -1.75150       -3.44990        1.76980
H         -0.67260       -4.00800        0.45260
H         -3.74350       -4.37850        0.40130
H         -3.24910       -6.10800       -1.28600
H         -1.48490       -5.75030       -1.14290
H         -2.63350       -4.50380       -1.79430
H         -1.58300       -6.34640        1.36470
H         -3.33950       -6.71090        1.13630
H         -2.82780       -5.53090        2.39040
H          0.11940       -4.13050       -2.11900
H          0.98480       -3.26190       -3.42100
H         -1.89280       -4.17970       -3.88970
H         -1.03800       -4.28520       -6.27920
H          0.53320       -3.59680       -5.72680
H         -0.98870       -2.64500       -5.62400
H          0.68090       -5.80660       -4.36340
H         -0.58310       -6.18610       -3.14450
H         -0.99010       -6.26030       -4.88300
H         -1.19040        0.41660       -3.40540
H         -0.89520       -0.77180       -4.64080
H         -3.47790       -0.05530       -3.16030
H         -3.39730       -2.59130       -3.21200
H         -4.70390       -1.89250       -4.20650
H         -3.22230       -2.50790       -5.01270
H         -2.85740        1.25450       -5.13960
H         -4.36580        0.31210       -5.40410
H         -2.81360       -0.25050       -6.13880
H         -0.35120       -2.59550        3.64370
H          0.56230       -3.59580        2.49430
H          2.12510       -2.17640        4.72410
H          0.49410       -4.76020        5.12630
H          1.68260       -4.04920        6.28910
H          0.16850       -3.16630        5.90980
H          3.42050       -3.43190        3.07880
H          2.41030       -4.90760        3.32480
H          3.47780       -4.28140        4.64000
H          2.81690       -0.12140        3.76890
H          2.26790        1.05920        2.54730
H          0.05560        1.24620        3.87740
H          1.89720        2.95390        3.96060
H          1.02050        2.81370        5.51990
H          2.65220        2.05800        5.32690
H          1.70050       -0.21460        6.04070
H          0.12010        0.61970        6.28220
H          0.19810       -0.82500        5.24170
H          3.20980       -3.95070        0.95040
H          1.56600       -3.95920        0.29860
H          2.55940       -3.58650       -2.01190
H          3.15880       -5.96520       -2.32970
H          3.35810       -6.15850       -0.54250
H          1.73630       -5.79410       -1.24820
H          4.90120       -4.15920       -2.43920
H          4.81860       -2.74180       -1.35720
H          5.21030       -4.37740       -0.68100
H          4.75040       -0.70810       -0.33780
H          3.81540        0.38470        0.72000
H          4.21080       -1.42550        2.60970
H          6.52770       -2.04160        0.66670
H          6.48130       -2.51030        2.40940
H          5.28080       -3.19100        1.28980
H          6.28820       -0.24460        3.28390
H          5.04870        0.89820        2.67270
H          6.44390        0.44190        1.61750
H          2.33620        3.77060       -0.65710
H          2.54220        2.36920        0.42440
H          3.93470        1.23120       -1.34320
H          3.82540        3.90850       -2.84250
H          3.09280        2.33430       -3.38290
H          4.86340        2.49150       -3.23340
H          4.97230        2.54010        0.51540
H          4.94260        4.01760       -0.51880
H          5.95860        2.59590       -0.98420
H         -0.88030        2.57930       -3.00890
H          0.53930        1.94840       -3.85670
H          1.57510        4.30990       -2.69060
H         -1.32400        4.88270       -3.54650
H         -0.61410        5.09430       -1.90200
H         -0.04380        6.11790       -3.24120
H          0.24120        4.03060       -5.44970
H          1.47930        5.25640       -4.96630
H          1.92180        3.52030       -5.04280
H         -3.34670        1.26250       -0.12530
H         -2.43710        1.33730       -1.64200
H         -2.36080        3.98090       -1.08030
H         -4.83320        2.54260       -2.21390
H         -4.41860        4.28780       -2.45060
H         -3.34560        3.01440       -3.12290
H         -4.43320        4.76580        0.03280
H         -4.97850        3.06390        0.29420
H         -3.53440        3.69400        1.16060
H          0.17880        2.77100        2.29030
H         -1.48430        3.36970        2.23290
H          0.25180        4.44800        0.02240
H         -1.96850        5.45170        0.57020
H         -1.39280        5.84360        2.22860
H         -0.65590        6.63830        0.78420
H          0.98860        5.18850        2.91810
H          1.64010        5.93920        1.40800
H          2.01520        4.22860        1.79150
H          2.96270       -1.85300       -3.27130
H          3.54060       -0.19570       -2.97330
H          3.19580       -0.39990       -6.80510
H          4.24020        0.00580       -5.38980
H          3.67680       -1.70170       -5.65020
