180
mol69-B-2
C         -5.73410        1.14090       -1.84970
S         -4.30810        1.52770       -0.78810
C         -3.27300        0.19680       -1.44330
Ge        -1.51850        0.15110       -0.59860
Ge         0.09820        1.76490       -1.68150
Ge        -1.20640        3.81850       -2.05960
C         -2.99660        3.62100       -1.37950
C         -1.63720        4.16700       -3.92580
C         -0.49880        5.52930       -1.47500
Ge         0.93550        1.74310       -4.00280
C         -0.37330        1.51120       -5.43530
C          2.26570        0.38900       -4.29440
C          1.81550        3.41850       -4.47780
Ge         2.08830        1.66560       -0.17990
Ge         2.64280        3.92650        0.61790
C          1.43900        4.60500        1.95570
C          2.70590        5.19150       -0.85140
C          4.42180        4.19400        1.37760
Ge         4.33020        1.35930       -1.13280
C          4.83190        2.85250       -2.26760
C          4.68060       -0.23210       -2.14200
C          5.72260        1.21140        0.22790
Ge        -2.04940        0.86450        1.75000
Ge        -4.21480       -0.14110        2.32230
C         -4.36130       -2.05220        2.31520
C         -4.83820        0.45230        4.06250
C         -5.62500        0.31180        1.05010
Ge        -2.86750        3.12750        2.26510
C         -1.78530        4.53950        1.53380
C         -4.68760        3.56680        1.71030
C         -3.02000        3.39790        4.17990
Ge        -0.03570        0.35970        3.13400
Ge         1.05260        2.02040        4.58990
C          1.50150        1.36300        6.36650
C          0.14790        3.69180        4.98670
C          2.83170        2.40940        3.96530
Ge        -0.79330       -0.98680        5.05820
C         -1.96100       -2.42110        4.54070
C         -1.83240        0.07080        6.32640
C          0.57680       -1.80570        6.18590
Ge         1.71010       -0.24310        1.40770
Ge         1.33750       -2.44090        0.25920
Ge         2.92050       -3.44350       -1.32180
C          4.78950       -3.21140       -0.81740
C          2.71320       -5.38120       -1.36230
C          2.68400       -2.94070       -3.18280
Ge         1.73750       -4.18850        1.91730
C          3.64970       -4.41650        2.21450
C          1.05600       -3.72370        3.64270
C          1.05120       -5.95930        1.49960
Ge        -0.87710       -2.26570       -0.78910
Ge        -2.29380       -4.12000       -0.03710
C         -2.05460       -4.66590        1.81130
C         -1.87900       -5.74490       -1.03050
C         -4.19160       -3.85630       -0.39760
Ge        -1.13900       -2.88990       -3.13550
C         -0.25420       -4.52480       -3.70600
C         -0.56520       -1.50620       -4.32430
C         -3.02410       -3.12730       -3.56760
C          3.47520       -0.46760        2.20070
S          3.39080       -1.21640        3.84500
C          5.19120       -1.19850        4.10700
H         -5.44890        1.22380       -2.91920
H         -6.10030        0.11480       -1.63770
H         -6.54800        1.86390       -1.63790
H         -3.12830        0.34170       -2.52750
H         -3.78040       -0.76610       -1.28680
H         -3.40910        4.61100       -1.10090
H         -3.64910        3.16990       -2.15260
H         -2.94220        2.95400       -0.51260
H         -2.29310        5.06000       -3.97560
H         -2.19260        3.30900       -4.34990
H         -0.72630        4.37980       -4.51170
H          0.18940        5.92890       -2.24640
H          0.02550        5.42500       -0.51640
H         -1.33710        6.24430       -1.35030
H         -1.35100        1.21670       -5.03180
H         -0.02130        0.73090       -6.13960
H         -0.49150        2.45460       -6.00400
H          2.32840       -0.18240       -3.36050
H          1.97950       -0.27220       -5.13450
H          3.22800        0.87520       -4.54230
H          1.47870        3.74300       -5.48280
H          2.91080        3.27690       -4.52770
H          1.55960        4.20690       -3.74990
H          2.00860        4.92750        2.84840
H          0.89260        5.48500        1.56960
H          0.75850        3.77860        2.21570
H          2.28160        6.16480       -0.53250
H          2.13850        4.77730       -1.69760
H          3.75650        5.35670       -1.16320
H          5.19350        4.03770        0.60000
H          4.49870        5.24290        1.72970
H          4.61220        3.52980        2.23830
H          5.51550        3.53110       -1.72020
H          5.34380        2.47780       -3.17700
H          3.92470        3.40360       -2.55770
H          4.76200       -0.01910       -3.22180
H          3.85270       -0.90550       -1.91210
H          5.64340       -0.67440       -1.81930
H          5.46290        1.76530        1.14040
H          5.87170        0.14660        0.49670
H          6.67400        1.60880       -0.18030
H         -3.47360       -2.40580        1.78730
H         -4.43140       -2.45830        3.33900
H         -5.28080       -2.35400        1.77650
H         -5.60700        1.24080        3.94070
H         -5.27870       -0.40210        4.61520
H         -3.98660        0.85700        4.63000
H         -5.66750       -0.45410        0.25000
H         -5.45470        1.29130        0.58250
H         -6.60050        0.32540        1.57750
H         -1.02860        4.05790        0.89430
H         -1.32460        5.13020        2.34680
H         -2.41360        5.22550        0.93380
H         -5.41360        2.93810        2.26020
H         -4.88720        4.62640        1.97020
H         -4.83240        3.44850        0.62270
H         -4.07190        3.25760        4.49880
H         -2.38540        2.65960        4.69160
H         -2.71240        4.43010        4.44280
H          2.05930        2.15600        6.90540
H          2.15840        0.47650        6.28420
H          0.59160        1.13140        6.94700
H         -0.55470        3.54160        5.83060
H          0.90060        4.44800        5.28900
H         -0.39170        4.05970        4.10470
H          3.55250        1.68850        4.39820
H          2.82200        2.30670        2.87510
H          3.12680        3.43280        4.27110
H         -1.99120       -2.40880        3.44470
H         -2.96180       -2.24850        4.97980
H         -1.57980       -3.39330        4.90690
H         -1.68500        1.14820        6.13980
H         -1.50110       -0.15720        7.35930
H         -2.90420       -0.19190        6.25910
H          1.56740       -1.73300        5.71800
H          0.33240       -2.87390        6.35370
H          0.61100       -1.30500        7.17340
H          5.14340       -4.09430       -0.25150
H          5.40650       -3.12130       -1.73430
H          4.91220       -2.30950       -0.19180
H          3.32430       -5.84570       -0.56640
H          3.06480       -5.77080       -2.33910
H          1.65310       -5.65600       -1.22260
H          1.78190       -2.31940       -3.25360
H          3.56830       -2.39820       -3.56820
H          2.55680       -3.84730       -3.80590
H          4.17770       -3.46260        2.03130
H          3.82760       -4.73500        3.26160
H          4.04840       -5.19910        1.54220
H          1.87610       -3.73480        4.38690
H          0.27720       -4.44450        3.95760
H          0.65040       -2.71190        3.52760
H          1.87660       -6.61950        1.16810
H          0.59100       -6.40250        2.40570
H          0.29530       -5.88660        0.70420
H         -2.97960       -4.51130        2.39900
H         -1.22270       -4.08580        2.23090
H         -1.81170       -5.74540        1.85820
H         -2.15630       -6.63070       -0.42380
H         -2.46120       -5.77540       -1.97010
H         -0.80040       -5.78740       -1.26220
H         -4.46640       -4.33280       -1.35810
H         -4.78590       -4.33600        0.40620
H         -4.42970       -2.77890       -0.44880
H          0.22240       -4.36370       -4.69400
H         -0.99340       -5.34390       -3.80390
H          0.51380       -4.80720       -2.97160
H         -1.40210       -1.20610       -4.98490
H          0.27630       -1.85940       -4.95110
H         -0.26690       -0.67530       -3.67470
H         -3.31560       -4.18530       -3.42960
H         -3.19930       -2.85460       -4.62810
H         -3.64530       -2.48140       -2.92020
H          4.07230       -1.11130        1.53230
H          3.97110        0.51090        2.27410
H          5.56930       -0.15520        4.08590
H          5.41580       -1.64220        5.09820
H          5.69840       -1.79710        3.32200
