36
mol66-D-2
C         -0.35620        4.42470        4.36720
S         -0.31170        3.95190        2.61030
C         -2.00300        4.50570        2.20600
Ge        -2.40780        4.17650        0.32810
Ge        -2.48460        1.80350        0.02150
Si        -0.34140        0.94460        0.13850
Si        -3.75370        0.84710        1.70170
Ge        -3.44840        1.30970       -2.11360
Si        -2.34570       -0.46380       -3.10610
Si        -5.67950        0.75800       -1.85740
Ge        -0.72220        5.06180       -1.11860
Si         1.38520        4.51400       -0.33550
Si        -0.93310        7.36220       -1.22820
Ge        -1.02740        4.11110       -3.29450
Si         0.47510        2.38490       -3.62440
Si        -0.67340        5.71720       -4.91990
Ge        -3.25150        3.25360       -3.48880
Ge        -4.78980        4.90300       -2.68480
Si        -6.98460        4.32810       -3.13970
Si        -4.32270        6.92210       -3.70910
Ge        -4.52840        5.09930       -0.31060
Si        -6.20240        3.92520        0.76860
Si        -4.71290        7.33390        0.26190
C         -3.54090        2.80860       -5.36010
S         -5.20090        2.08540       -5.58290
C         -5.05540        1.83250       -7.38100
H         -0.51970        5.51790        4.46530
H          0.61460        4.16350        4.83570
H         -1.16210        3.87390        4.88880
H         -2.77150        4.01320        2.83720
H         -2.06150        5.59910        2.38170
H         -3.38350        3.72000       -5.97320
H         -2.78420        2.05480       -5.65890
H         -4.25440        1.09480       -7.59480
H         -6.01780        1.44310       -7.77110
H         -4.82440        2.79310       -7.88680
