72
mol6-A-1
C         -2.76300        4.01890       -1.84330
S         -2.52230        2.23130       -2.10600
C         -1.48820        1.95910       -0.61830
C         -0.86170        0.56080       -0.15260
C         -2.31060       -0.43700        0.16390
C         -3.42780       -0.00390        1.31190
F         -3.14820       -0.31370        2.59530
F         -3.80440        1.32810        1.27350
F         -4.64880       -0.64430        1.18090
C         -3.45040       -0.26220       -1.05660
F         -3.07100       -0.34140       -2.33130
F         -4.49380       -1.16450       -1.02030
F         -4.09280        0.96770       -1.02240
C         -1.77520       -2.00780        0.51740
C         -2.53670       -3.04310       -0.52540
F         -2.05320       -4.32600       -0.52330
F         -3.86930       -3.26540       -0.22390
F         -2.63350       -2.65430       -1.81790
C         -2.40370       -2.76720        1.84870
F         -2.00230       -2.38480        3.05610
F         -2.12090       -4.12150        1.85480
F         -3.77780       -2.70000        1.96980
C          0.09640        0.80010        1.30700
C         -0.69010        1.84120        2.32770
F         -0.15180        1.94050        3.59570
F         -0.68770        3.13870        1.84740
F         -1.97610        1.63500        2.59050
C          1.47750        1.71200        1.32020
F          1.38090        2.91790        0.67520
F          2.61260        1.11650        0.88680
F          1.86870        2.12160        2.58330
C          0.49470       -0.74340        1.88840
C          2.08370       -1.00750        2.36240
F          2.64110       -0.00860        3.13410
F          2.22950       -2.13870        3.15360
F          3.02670       -1.19170        1.43920
C         -0.02470       -0.85060        3.46080
F         -1.24690       -0.35310        3.74390
F          0.04780       -2.12210        4.00460
F          0.73560       -0.11850        4.35750
C         -0.01970       -1.92720        0.65200
C          0.73230       -1.59930       -0.90850
C          2.37930       -1.60020       -1.00530
F          3.01000       -0.44660       -0.68060
F          2.96390       -2.64430       -0.31180
F          2.88110       -1.80300       -2.28500
C          0.60730       -2.87090       -1.96380
F         -0.55580       -3.51340       -2.07150
F          1.49440       -3.89960       -1.69000
F          0.91690       -2.53850       -3.26730
C          0.11180       -0.11060       -1.46020
C         -0.58400       -0.29910       -2.94410
F         -1.28770       -1.43820       -3.14760
F          0.31820       -0.37590       -3.99800
F         -1.35820        0.78260       -3.32270
C          1.22700        0.96370       -2.05030
F          1.93980        1.69600       -1.19420
F          0.67480        1.92580       -2.88080
F          2.18490        0.37900       -2.85380
C          0.53800       -3.31180        1.23220
S          0.29480       -4.96630        0.48380
C          1.22360       -5.88590        1.75430
H         -3.27310        4.19910       -0.87430
H         -1.78490        4.54330       -1.85720
H         -3.39570        4.42130       -2.66060
H         -2.12480        2.35980        0.16690
H         -0.68410        2.68770       -0.73930
H          1.62080       -3.26800        1.31900
H          0.17080       -3.44520        2.25170
H          2.27560       -5.53410        1.79040
H          0.74780       -5.75280        2.74810
H          1.21620       -6.96450        1.49620
