36
mol66-E-2
C         -2.48790       -9.85900       -2.98790
S         -1.38370       -8.47220       -2.57690
C         -1.90640       -7.44970       -3.98860
Ge        -0.94230       -5.76180       -3.97570
Ge        -1.05350       -4.71060       -1.83340
Si         0.22270       -5.90600       -0.32100
Si        -3.23340       -4.62530       -1.06490
Ge        -0.19040       -2.49090       -2.06430
Si         1.06690       -1.94490       -0.20150
Si        -1.92690       -0.97540       -2.24660
Ge        -1.81910       -4.25390       -5.61420
Si        -2.18460       -5.39600       -7.59130
Si        -3.82880       -3.37650       -4.87910
Ge        -0.23790       -2.48580       -5.95150
Si        -1.34170       -0.47660       -6.25370
Si         1.01270       -2.94500       -7.84180
Ge         1.17810       -2.34580       -4.02460
Ge         2.65540       -4.23840       -4.05250
Si         4.26210       -4.07280       -5.71110
Si         3.70960       -4.41140       -2.00240
Ge         1.35220       -6.20430       -4.47690
Si         1.52360       -6.81380       -6.70070
Si         2.10950       -7.95990       -3.17640
C          2.05400       -0.60090       -3.93660
S          3.84190       -0.72720       -4.26700
C          4.18270        1.05110       -4.08070
H         -3.54540       -9.52250       -2.97070
H         -2.35450      -10.66270       -2.23520
H         -2.23760      -10.26130       -3.99150
H         -1.69180       -7.97500       -4.94230
H         -2.99300       -7.23560       -3.91720
H          1.55330        0.10560       -4.63030
H          1.92670       -0.20760       -2.90780
H          3.99320        1.36690       -3.03390
H          5.24650        1.24400       -4.32830
H          3.54260        1.63580       -4.76940
