72
mol6-D-2
C         -3.05220       -3.82020        3.10050
S         -1.95860       -3.61770        1.65570
C         -1.77150       -1.80320        1.80130
C         -0.89740       -0.86670        0.81760
C          0.82250       -0.88150        1.24690
C          1.41670       -0.33850        2.68330
F          1.47130        0.98970        2.91390
F          2.73950       -0.73010        2.82910
F          0.82250       -0.85270        3.80840
C          1.28300       -2.49070        1.53520
F          0.29290       -3.40140        1.42510
F          1.67920       -2.80570        2.83030
F          2.32160       -3.00250        0.81150
C          1.63640        0.06280        0.05140
C          2.72720        1.24290        0.57660
F          2.27420        2.31230        1.23810
F          3.45410        1.84800       -0.43020
F          3.72690        0.77890        1.40470
C          2.83400       -0.83390       -0.62200
F          2.46090       -1.95360       -1.26760
F          3.64500       -0.17480       -1.52880
F          3.74410       -1.26500        0.32930
C         -1.61280        0.72610        0.90490
C         -1.79930        1.11380        2.49990
F         -0.78000        0.81800        3.31600
F         -2.07660        2.44320        2.75620
F         -2.86540        0.44960        3.08500
C         -3.20490        0.99050        0.55960
F         -4.08320        0.05800        1.07770
F         -3.52430        1.16260       -0.74710
F         -3.68040        2.17280        1.10650
C         -0.69500        1.75620       -0.07950
C         -0.17810        3.01390        0.85610
F          0.79510        3.81190        0.28570
F         -1.18480        3.92940        1.12300
F          0.23470        2.70950        2.11150
C         -1.48340        2.74860       -1.13930
F         -2.59780        3.38890       -0.63160
F         -0.68780        3.79580       -1.57570
F         -1.90360        2.19640       -2.28440
C          0.41580        0.76410       -0.99500
C         -0.39340       -0.51040       -1.92430
C          0.70730       -1.11130       -3.06970
F          0.39020       -0.90890       -4.40840
F          1.91490       -0.50840       -3.07930
F          0.97620       -2.44990       -3.06350
C         -1.57030       -0.22860       -3.04070
F         -1.26900        0.70010       -4.00510
F         -1.80590       -1.37620       -3.78340
F         -2.80620        0.11570       -2.62290
C         -1.12660       -1.56910       -0.77320
C         -0.60780       -3.10210       -1.04230
F         -0.91380       -3.52590       -2.32520
F         -1.19150       -4.08320       -0.26040
F          0.71310       -3.32430       -0.91690
C         -2.74260       -2.00570       -1.01000
F         -3.69950       -1.07910       -0.89800
F         -3.01500       -2.57160       -2.23700
F         -3.21360       -2.97280       -0.14340
C          1.23640        1.77620       -1.94910
S          0.69410        2.36200       -3.59570
C          2.15190        3.40700       -3.92380
H         -3.31820       -4.89200        3.20370
H         -3.98350       -3.23230        2.96330
H         -2.53160       -3.49110        4.02370
H         -1.47540       -1.64180        2.83240
H         -2.80760       -1.50080        1.84330
H          2.22390        1.40810       -2.18600
H          1.48670        2.68180       -1.40680
H          2.22860        4.20780       -3.15930
H          2.04100        3.87650       -4.92260
H          3.07520        2.79130       -3.91870
