72
mol62-B-0
C          1.58880        6.19670       -1.82510
S          0.86950        4.92250       -0.74350
C          1.41890        3.53030       -1.77510
Ge         0.85860        1.83780       -0.99340
Ge         1.57260        0.13770       -2.56260
C          0.97680        0.56860       -4.36980
F         -0.37110        0.83410       -4.38630
F          1.23840       -0.49890       -5.20670
F          1.66050        1.68060       -4.82210
C          3.51210        0.06650       -2.75030
F          3.83610       -0.46100       -3.98520
F          4.03340        1.34180       -2.65530
F          4.05480       -0.73640       -1.77280
Ge         0.74030       -2.00420       -1.85350
C         -0.57440       -2.65640       -3.13530
F          0.07860       -3.24360       -4.20180
F         -1.38430       -3.59620       -2.52800
F         -1.33790       -1.61230       -3.60680
C          2.14530       -3.35700       -1.92650
F          1.57200       -4.61350       -1.95160
F          2.89360       -3.18080       -3.07410
F          2.96630       -3.26050       -0.82750
Ge         1.92640        1.48110        1.15530
C          3.83390        1.86660        1.02160
F          4.44990        1.57460        2.22290
F          4.41070        1.11400        0.02640
F          4.00760        3.20640        0.73370
C          1.33400        2.66680        2.58810
F          0.09370        2.28330        3.04210
F          2.22860        2.59470        3.63790
F          1.28210        3.96820        2.13400
Ge         1.52270       -0.79110        1.84090
C          3.23190       -1.73290        1.87450
F          3.94690       -1.46420        0.73070
F          3.02120       -3.09160        1.98380
F          3.96620       -1.30510        2.96320
C          0.92570       -0.89030        3.69520
F          0.81570       -2.21620        4.06690
F          1.84640       -0.26280        4.51150
F         -0.29640       -0.27870        3.84330
Ge        -0.15970       -1.74840        0.37880
Ge        -2.11320       -0.31910        0.32050
C         -2.84220        0.01650        2.09770
F         -4.18550        0.32130        1.99420
F         -2.69620       -1.11310        2.87870
F         -2.19360        1.07960        2.68400
C         -3.59160       -1.20310       -0.59560
F         -4.62560       -0.30430       -0.77270
F         -3.19010       -1.67530       -1.82180
F         -4.03520       -2.26270        0.17200
Ge        -1.54720        1.76460       -0.73830
C         -2.49850        1.92190       -2.43150
F         -3.78320        2.37110       -2.19460
F         -1.84570        2.82730       -3.24520
F         -2.56810        0.69580       -3.05380
C         -2.22080        3.27730        0.29520
F         -3.48850        2.98750        0.76070
F         -1.39290        3.54090        1.36110
F         -2.28290        4.39490       -0.51410
C         -0.78950       -3.45620        1.06920
S          0.56030       -4.67360        1.08840
C         -0.46390       -6.01440        1.76970
H          1.13450        6.13980       -2.83620
H          1.38040        7.19700       -1.39370
H          2.68770        6.05900       -1.89830
H          0.97380        3.61480       -2.78800
H          2.52530        3.53410       -1.85590
H         -1.61200       -3.81750        0.41790
H         -1.17350       -3.30220        2.09860
H         -0.86090       -5.72330        2.76450
H         -1.30440       -6.24020        1.08090
H          0.16050       -6.92380        1.88440
