72
mol63-A-1
C          2.73620       -1.97470        5.44690
S          2.04440       -0.64450        4.41630
C          1.64830       -1.73010        3.01710
Ge         0.82430       -0.77310        1.51470
Ge        -1.62950       -0.78090        2.13620
C         -2.58230       -2.54270        2.17230
Cl        -2.35440       -3.47550        0.71920
Cl        -2.04940       -3.56100        3.53270
Cl        -4.34460       -2.34060        2.30940
C         -1.86780       -0.29960        4.09280
Cl        -0.67010       -1.11160        5.12130
Cl        -3.45640       -0.74010        4.76130
Cl        -1.72460        1.40480        4.43430
Ge        -2.72770        0.67290        0.44430
C         -3.57150        2.22300        1.39230
Cl        -4.61010        3.18160        0.30910
Cl        -4.56950        1.69540        2.76740
Cl        -2.40820        3.31980        2.08330
C         -4.39730       -0.03330       -0.46720
Cl        -4.30150       -1.70950       -0.93960
Cl        -5.86310        0.04720        0.53770
Cl        -4.77530        0.87540       -1.94470
Ge         1.33590       -2.11560       -0.60090
C          1.10080       -4.09200       -0.11060
Cl         2.59620       -5.03990        0.05990
Cl         0.18810       -4.99370       -1.32390
Cl         0.39400       -4.33480        1.48400
C          3.14860       -2.31750       -1.49210
Cl         4.50350       -2.79080       -0.43180
Cl         3.04310       -3.58240       -2.74360
Cl         3.70040       -0.87340       -2.31890
Ge        -0.10760       -0.97060       -2.34540
C          0.78590       -0.33440       -4.03930
Cl         1.83270       -1.53440       -4.83090
Cl         1.76690        1.07050       -3.76340
Cl        -0.39470        0.19090       -5.26370
C         -1.49540       -2.14280       -3.25770
Cl        -2.18590       -3.41050       -2.28120
Cl        -0.83230       -3.05230       -4.63490
Cl        -2.86520       -1.19540       -3.87290
Ge        -0.92710        1.16670       -1.26490
Ge         0.86300        2.78070       -0.41030
C          2.51640        3.39100       -1.41770
Cl         3.75290        2.15780       -1.57060
Cl         2.25470        3.99320       -3.07700
Cl         3.27780        4.73330       -0.52570
C         -0.02310        4.62480       -0.28630
Cl         0.44540        5.80410       -1.53260
Cl         0.35040        5.46280        1.22240
Cl        -1.76530        4.57900       -0.53930
Ge         1.76960        1.57240        1.62850
C          3.76260        1.27640        1.74110
Cl         4.29670        0.05000        0.63500
Cl         4.26140        0.67070        3.33890
Cl         4.75390        2.71650        1.41620
C          1.59540        2.56030        3.39640
Cl         1.56330        1.44770        4.77960
Cl         2.92680        3.70490        3.68100
Cl         0.19330        3.58140        3.56630
C         -1.92130        2.10370       -2.67400
S         -0.87980        3.22470       -3.64960
C         -2.23220        3.78280       -4.73100
H          1.96380       -2.74770        5.64120
H          3.06710       -1.54630        6.41490
H          3.61000       -2.43450        4.94000
H          0.96060       -2.51440        3.36910
H          2.57810       -2.21390        2.66570
H         -2.73640        2.68770       -2.20850
H         -2.36970        1.36410       -3.35530
H         -3.02420        4.27420       -4.12830
H         -1.83150        4.51450       -5.46190
H         -2.65980        2.92020       -5.28340
