180
mol61-C-0
C          4.47860        4.11410       -1.64340
S          2.95210        3.63060       -0.77850
C          2.97040        1.92210       -1.37960
Ge         1.49490        0.76110       -0.78260
Ge         1.89040        0.40260        1.80760
C          3.61450       -0.52300        2.49020
C          4.92310        0.05220        1.86120
C          3.75850       -0.37200        4.03290
C          3.51210       -2.02600        2.17060
C          2.21280        2.26270        2.72300
C          1.98640        2.29150        4.26040
C          1.29300        3.30250        2.09410
C          3.65170        2.79760        2.49510
Ge        -0.10410       -1.13310        2.47430
C          0.21890       -2.96300        3.44340
C          1.21770       -2.92500        4.63280
C         -1.08780       -3.55480        4.03200
C          0.74840       -3.99120        2.44080
C         -1.19330       -0.23810        4.02970
C         -1.37480        1.26020        3.79000
C         -0.42140       -0.35080        5.37820
C         -2.61190       -0.84950        4.24490
Ge         2.09640       -1.23740       -2.39620
C          4.18030       -1.46050       -2.33200
C          4.67720       -1.17670       -0.91380
C          4.74100       -2.84960       -2.74620
C          4.91820       -0.45530       -3.25360
C          1.87460       -1.08880       -4.47400
C          0.38730       -1.09130       -4.83110
C          2.52800        0.17100       -5.12520
C          2.49270       -2.31800       -5.18610
Ge         0.56640       -3.12700       -1.49570
C          1.83510       -4.69070       -0.93430
C          2.46810       -5.34860       -2.18750
C          1.15170       -5.82780       -0.12290
C          3.00540       -4.15790       -0.10330
C         -0.65720       -4.19930       -2.80400
C         -0.07770       -4.44540       -4.21860
C         -1.05260       -5.61310       -2.30330
C         -1.97090       -3.44300       -2.95230
Ge        -1.07430       -1.77910        0.10290
Ge        -2.52390        0.09020       -1.07320
C         -3.48800       -0.18540       -2.90970
C         -4.35850       -1.47650       -3.01620
C         -4.42930        1.00720       -3.21600
C         -2.45460       -0.21430       -4.03850
C         -4.24670        0.34280        0.12690
C         -3.88190        0.12030        1.59830
C         -5.34690       -0.70710       -0.18520
C         -4.99430        1.71440        0.03340
Ge        -0.75400        1.97040       -1.37790
C         -1.43640        3.50050       -0.21140
C         -0.49130        4.71880        0.01350
C         -1.71400        2.85060        1.11820
C         -2.76370        4.06650       -0.75570
C         -0.51850        2.99020       -3.16910
C          0.06340        4.41320       -3.00770
C         -1.82520        3.19560       -3.96880
C          0.48310        2.23250       -4.03330
C         -2.59670       -2.95070        0.52680
S         -2.18880       -4.64740        1.00200
C         -3.91820       -5.16000        1.24380
H          4.69650        5.17900       -1.42290
H          5.32910        3.49330       -1.29230
H          4.35100        3.99300       -2.73940
H          3.92250        1.46420       -1.06790
H          2.93440        1.97100       -2.47500
H          5.53590        0.66650        2.54660
H          5.64940       -0.73040        1.56440
H          4.69680        0.68330        0.99060
H          4.34570        0.50890        4.34250
H          2.78040       -0.26940        4.52070
H          4.30530       -1.22310        4.49230
H          4.33230       -2.40410        1.53900
H          3.56540       -2.69320        3.05020
H          2.56090       -2.20950        1.65650
H          2.89900        2.08180        4.84780
H          1.23930        1.56890        4.58040
H          1.65940        3.29650        4.60690
H          0.37000        3.47040        2.67520
H          1.07070        2.95640        1.08290
H          1.73890        4.31710        2.01130
H          3.73540        3.87960        2.73770
H          4.38790        2.34410        3.17100
H          3.97950        2.66730        1.45520
H          1.68020       -3.91800        4.82410
H          0.76720       -2.68270        5.60780
H          2.01180       -2.21740        4.44650
H         -1.38080       -3.08280        4.98050
H         -0.96510       -4.62680        4.30220
H         -1.92540       -3.48000        3.32860
H          1.77440       -4.31130        2.69110
H          0.72150       -3.57830        1.42430
H          0.18180       -4.94350        2.44690
H         -2.22920        1.47490        3.15160
H         -0.46980        1.64680        3.34360
H         -1.59060        1.83830        4.71380
H         -0.60600        0.49780        6.07060
H         -0.72090       -1.22470        5.98080
H          0.66340       -0.39880        5.21430
H         -2.86570       -1.54730        3.43750
H         -2.73490       -1.39650        5.20010
H         -3.41160       -0.08080        4.29990
H          3.81280       -0.95220       -0.27500
H          5.38110       -0.31970       -0.86270
H          5.23810       -2.02820       -0.47390
H          4.39250       -3.22130       -3.71120
H          4.55690       -3.62780       -2.01080
H          5.85060       -2.81060       -2.82010
H          4.55800        0.57560       -3.13080
H          6.00710       -0.42890       -3.02340
H          4.88910       -0.76160       -4.30900
H         -0.15840       -1.51850       -3.98060
H         -0.00600       -0.10360       -5.08690
H          0.14140       -1.64330       -5.76180
H          2.78880        0.92150       -4.37430
H          1.87890        0.65310       -5.88560
H          3.44600       -0.04070       -5.70700
H          2.30460       -3.23550       -4.61700
H          2.09240       -2.46020       -6.21300
H          3.57810       -2.21450       -5.35420
H          2.72510       -4.58850       -2.93410
H          3.38550       -5.92790       -1.94740
H          1.82040       -6.09610       -2.66850
H          0.95430       -6.74590       -0.70910
H          0.19730       -5.49180        0.27970
H          1.77170       -6.18980        0.72520
H          3.13660       -3.10120       -0.32470
H          2.87010       -4.28430        0.96370
H          3.95850       -4.70610       -0.25210
H         -0.75050       -5.11150       -4.80380
H          0.89990       -4.93820       -4.22240
H         -0.01560       -3.54550       -4.81600
H         -0.27070       -6.36900       -2.46340
H         -1.91900       -6.00640       -2.88190
H         -1.36880       -5.61010       -1.25850
H         -1.82840       -2.40450       -2.63150
H         -2.76940       -3.87660       -2.31880
H         -2.36120       -3.47660       -3.99190
H         -4.20680       -2.02880       -3.96640
H         -5.44980       -1.28660       -3.03210
H         -4.16030       -2.16180       -2.18730
H         -4.68760        1.07560       -4.29490
H         -5.41290        0.91330       -2.72680
H         -3.97330        1.95800       -2.91320
H         -1.54930        0.28910       -3.67760
H         -2.79550        0.26420       -4.98020
H         -2.22420       -1.22720       -4.39050
H         -4.39540       -0.75370        2.04970
H         -4.17910        0.97130        2.24660
H         -2.79800       -0.04190        1.67890
H         -6.13680       -0.69970        0.59960
H         -4.96330       -1.73520       -0.20090
H         -5.90140       -0.47410       -1.10410
H         -6.00570        1.63560        0.49030
H         -4.54280        2.53570        0.60720
H         -5.16520        2.07040       -0.98460
H          0.53310        4.50510       -0.28550
H         -0.48180        5.06270        1.06810
H         -0.79490        5.63320       -0.53300
H         -2.56790        2.20390        1.03680
H         -0.90510        2.14940        1.34700
H         -1.90880        3.57580        1.93780
H         -3.36880        4.52790        0.05510
H         -3.34170        3.27460       -1.24060
H         -2.61800        4.86060       -1.51170
H          0.35370        4.83130       -3.99790
H         -0.67900        5.12680       -2.61850
H          0.98120        4.41230       -2.40540
H         -2.60580        3.70420       -3.38600
H         -2.22520        2.27030       -4.37410
H         -1.64060        3.83290       -4.86200
H          1.47240        2.73480       -4.08610
H          0.65850        1.25020       -3.57960
H          0.13890        2.12640       -5.08420
H         -3.23170       -3.01070       -0.36230
H         -3.17510       -2.49910        1.34580
H         -4.48430       -5.05340        0.29500
H         -4.39170       -4.54340        2.03620
H         -3.93880       -6.22380        1.55660
