180
mol67-C-1
C         -2.80880       -5.40010       -1.25540
S         -2.71200       -3.58570       -1.35230
C         -1.12020       -3.47810       -0.50360
Ge        -0.48510       -1.64650       -0.31190
Ge         1.16050       -1.43380        1.59620
Si         2.54860       -3.38770        1.38180
C          2.14350       -4.34760       -0.14950
C          4.39580       -3.13990        1.43940
C          2.26120       -4.72200        2.66470
Si         0.80820       -1.82740        3.94800
C         -0.14440       -3.37840        4.42420
C          2.41450       -1.99150        4.91350
C         -0.10100       -0.42500        4.73070
Ge         1.95110        0.93560        1.35660
Si         1.98510        2.42380        3.22680
C          2.54140        4.17120        2.81190
C          0.34110        2.74300        3.97920
C          3.10100        1.80990        4.58930
Si         4.34470        0.95140        1.21380
C          5.24500        2.57500        1.49870
C          5.07420       -0.12270        2.54880
C          4.96620        0.37600       -0.42910
Ge        -2.63950       -0.37040       -0.01750
Si        -3.82890       -1.41860        1.75590
C         -4.62520       -3.01810        1.18960
C         -2.69400       -1.90220        3.11980
C         -5.21050       -0.42280        2.52680
Si        -4.52490       -0.52640       -1.48160
C         -6.11590       -0.00150       -0.63960
C         -4.90780       -2.26290       -2.08320
C         -4.37400        0.59120       -2.96550
Ge        -1.97660        1.99560        0.20210
Si        -3.01190        3.66080       -1.15150
C         -2.32110        3.66070       -2.85560
C         -4.86910        3.54190       -1.33120
C         -2.68090        5.38640       -0.49830
Si        -2.90690        2.91920        2.20330
C         -4.71590        3.36630        1.99870
C         -2.10660        4.52600        2.74500
C         -2.88040        1.73650        3.64480
Ge         0.47170        2.02930       -0.36140
Ge         1.06780        1.19860       -2.67090
Si         0.11790        1.80110       -4.77500
C         -1.57210        1.08350       -4.95820
C         -0.04490        3.62790       -5.17480
C          1.12780        1.07930       -6.17590
Si         3.17100        2.27980       -3.15590
C          3.81430        3.17540       -1.67190
C          4.57610        1.24440       -3.81080
C          3.10010        3.70640       -4.36980
Ge         0.67130       -1.27120       -2.52610
Si        -0.65430       -2.50380       -4.11510
C         -2.42430       -2.01700       -4.13460
C         -0.10290       -2.43060       -5.90140
C         -0.77150       -4.34180       -3.72070
Si         2.69120       -2.36800       -3.21840
C          4.00180       -2.31950       -1.91770
C          3.38010       -1.59710       -4.76970
C          2.59090       -4.17570       -3.71060
C          0.90530        3.92000       -0.16230
S          0.62110        4.85500       -1.68710
C          1.15050        6.44780       -0.98500
H         -1.94220       -5.85820       -1.77600
H         -2.82340       -5.72520       -0.19430
H         -3.74330       -5.73820       -1.74770
H         -1.22850       -3.92470        0.49020
H         -0.36160       -4.04880       -1.06360
H          3.04090       -4.89120       -0.50550
H          1.78360       -3.64490       -0.90760
H          1.35300       -5.09280        0.06610
H          4.89610       -4.02260        0.99210
H          4.68160       -2.24680        0.87170
H          4.73280       -3.05030        2.49070
H          2.57740       -4.39470        3.67000
H          2.87320       -5.60690        2.39400
H          1.19900       -5.03070        2.66100
H         -0.62690       -3.82920        3.55190
H         -0.92190       -3.13300        5.17490
H          0.52880       -4.13100        4.87830
H          3.25820       -2.21190        4.23980
H          2.62370       -1.07960        5.49970
H          2.32940       -2.82220        5.64240
H         -0.45210        0.21160        3.90900
H          0.58720        0.12180        5.40190
H         -0.96150       -0.78240        5.32870
H          1.66670        4.79470        2.54020
H          3.24770        4.19940        1.97260
H          3.02260        4.62120        3.70400
H          0.21270        3.82620        4.16660
H          0.22080        2.23990        4.95300
H         -0.37290        2.38460        3.23070
H          3.24460        0.72770        4.46550
H          2.64260        2.01370        5.57820
H          4.08410        2.31700        4.54130
H          6.33080        2.40040        1.35420
H          4.93310        3.35760        0.78610
H          5.10010        2.92450        2.53740
H          5.41080        0.49940        3.40160
H          4.29320       -0.81280        2.89720
H          5.95000       -0.68020        2.15990
H          4.08550        0.27340       -1.08440
H          5.66570        1.11990       -0.85680
H          5.52230       -0.57260       -0.32440
H         -4.01590       -3.49430        0.40140
H         -4.71900       -3.71440        2.04730
H         -5.64120       -2.81950        0.80130
H         -1.68140       -1.72000        2.73740
H         -2.89160       -1.30690        4.03140
H         -2.83300       -2.97340        3.36480
H         -6.19470       -0.78340        2.17050
H         -5.18500       -0.53450        3.62950
H         -5.09520        0.63680        2.26410
H         -6.58080       -0.86500       -0.12840
H         -5.92310        0.79450        0.09750
H         -6.83420        0.37040       -1.39810
H         -5.21000       -2.22490       -3.14930
H         -4.03140       -2.92220       -1.96870
H         -5.75190       -2.69450       -1.51220
H         -4.26740        0.00810       -3.89850
H         -3.49500        1.22980       -2.80880
H         -5.27790        1.22260       -3.07090
H         -1.49660        2.93690       -2.83970
H         -3.09970        3.37410       -3.58750
H         -1.94890        4.66940       -3.12040
H         -5.19990        2.52630       -1.08420
H         -5.37290        4.26570       -0.66200
H         -5.16330        3.77770       -2.37380
H         -3.47570        5.68500        0.20980
H         -2.68520        6.11200       -1.33670
H         -1.70050        5.42610        0.00800
H         -5.21420        2.66370        1.31030
H         -5.22260        3.33070        2.98440
H         -4.81410        4.39540        1.60640
H         -2.68030        5.39330        2.36790
H         -2.10550        4.58040        3.85250
H         -1.07240        4.59390        2.36980
H         -3.90210        1.57630        4.03860
H         -2.27180        2.13100        4.48040
H         -2.46770        0.78880        3.27830
H         -2.33280        1.87060       -5.11030
H         -1.59780        0.41660       -5.83910
H         -1.77110        0.53450       -4.02770
H          0.10760        4.24380       -4.27740
H         -1.05560        3.83580       -5.57990
H          0.69020        3.91800       -5.95070
H          1.11880       -0.01730       -6.11280
H          0.68480        1.38790       -7.14480
H          2.17820        1.41530       -6.13340
H          4.92220        3.18170       -1.67910
H          3.46640        4.22630       -1.67300
H          3.42870        2.66120       -0.78670
H          5.52710        1.79870       -3.67570
H          4.44030        1.06860       -4.89590
H          4.64680        0.29570       -3.26270
H          2.86690        3.36600       -5.39190
H          4.09980        4.18640       -4.40220
H          2.37440        4.46760       -4.03070
H         -2.66920       -1.41610       -5.02840
H         -2.56800       -1.45320       -3.20620
H         -3.06830       -2.91760       -4.15660
H         -0.49070       -1.51850       -6.38810
H          0.99320       -2.47200       -5.97880
H         -0.52510       -3.29850       -6.44710
H         -1.68940       -4.55330       -3.13740
H          0.08870       -4.69900       -3.14000
H         -0.82850       -4.92290       -4.66310
H          4.36050       -3.34300       -1.69430
H          4.86970       -1.73140       -2.26680
H          3.53870       -1.87960       -1.01970
H          2.92260       -0.60590       -4.89830
H          3.15860       -2.22270       -5.65480
H          4.48290       -1.51800       -4.69790
H          1.90590       -4.30690       -4.57020
H          2.28580       -4.81560       -2.86380
H          3.60050       -4.50470       -4.03160
H          0.27690        4.33270        0.64190
H          1.95570        4.02910        0.13910
H          2.21140        6.38960       -0.66410
H          0.51120        6.71620       -0.11860
H          1.05260        7.23410       -1.76100
