180
mol61-D-0
C         -0.92430       -2.45280       -5.64620
S         -0.58410       -1.12200       -4.45230
C         -0.65470       -2.19690       -3.00010
Ge        -0.35290       -1.33900       -1.25430
Ge         2.21900       -0.72230       -1.28300
C          3.72850       -2.14790       -1.50230
C          3.87150       -2.97190       -0.21370
C          5.10630       -1.47170       -1.72610
C          3.50260       -3.11970       -2.69850
C          2.57960        0.38340       -3.02230
C          2.78910       -0.52780       -4.25870
C          3.81800        1.31870       -2.99570
C          1.37060        1.26950       -3.33600
Ge         2.53000        0.38900        1.02290
C          3.15060        2.35830        0.71530
C          3.11490        3.26440        1.98600
C          4.60670        2.39550        0.18410
C          2.27670        3.00500       -0.36460
C          4.08130       -0.22840        2.28170
C          4.38900        0.80260        3.39810
C          3.67210       -1.51830        2.99230
C          5.45130       -0.49870        1.60420
Ge        -1.98800        0.72330       -1.04970
C         -3.79410        0.08250       -1.91680
C         -5.11360        0.75960       -1.42150
C         -3.81980        0.28830       -3.45170
C         -3.93150       -1.42800       -1.71290
C         -1.78080        2.53420       -2.06580
C         -3.04480        3.41290       -1.88700
C         -0.62140        3.33510       -1.46890
C         -1.54310        2.40280       -3.59920
Ge        -1.75720        1.26980        1.48710
C         -1.47730        3.20710        2.18370
C         -2.23700        4.30230        1.39600
C         -1.93740        3.40430        3.64460
C          0.01660        3.52560        2.16950
C         -3.60790        0.89490        2.25640
C         -3.92520       -0.48600        1.75220
C         -3.77180        0.91870        3.80620
C         -4.66290        1.86560        1.69100
Ge         0.27110       -0.21250        2.24020
Ge        -0.29660       -2.77990        2.56480
C          1.16230       -4.13230        3.17360
C          0.53140       -5.49710        3.58560
C          1.99320       -3.63750        4.39930
C          2.11470       -4.39790        1.99150
C         -1.55000       -3.00310        4.23640
C         -2.36830       -4.32240        4.28960
C         -0.77470       -2.93180        5.57980
C         -2.53900       -1.84810        4.28180
Ge        -1.06190       -3.46360        0.16900
C         -0.15670       -5.09560       -0.80530
C         -0.94630       -5.62860       -2.03270
C          1.20340       -4.67110       -1.35510
C          0.06580       -6.33980        0.09390
C         -2.98560       -4.31580        0.25000
C         -3.93630       -3.51420        1.13910
C         -3.68240       -4.46000       -1.13950
C         -2.91840       -5.73310        0.89490
C          0.85190        0.43430        4.00950
S         -0.40220        0.46630        5.31760
C          0.72150        1.11900        6.59150
H         -0.13200       -3.22820       -5.58950
H         -0.93530       -2.02530       -6.66950
H         -1.91400       -2.90950       -5.43700
H          0.11120       -2.97340       -3.13750
H         -1.64680       -2.66620       -2.98390
H          4.91530       -3.22770        0.05940
H          3.39770       -2.42690        0.60360
H          3.44660       -3.96900       -0.27630
H          5.95500       -2.15130       -1.49630
H          5.20840       -0.57210       -1.10190
H          5.29320       -1.20030       -2.77720
H          2.46880       -3.05770       -3.06390
H          3.72770       -4.17680       -2.44510
H          4.16220       -2.93000       -3.56730
H          2.05770       -1.34640       -4.29560
H          3.80960       -0.93240       -4.31580
H          2.68730        0.04360       -5.20790
H          4.76810        0.84080       -2.75130
H          3.96740        1.77980       -3.99750
H          3.68730        2.16190       -2.32170
H          1.63800        2.34450       -3.36770
H          0.94180        1.09780       -4.34230
H          0.58530        1.09270       -2.58800
H          2.53540        2.80190        2.79050
H          2.69320        4.27210        1.78940
H          4.11210        3.50420        2.40310
H          5.36010        2.37710        0.98960
H          4.79830        1.55210       -0.49400
H          4.84000        3.33880       -0.35490
H          2.82290        3.66890       -1.06470
H          1.77900        2.20660       -0.92360
H          1.53510        3.70170        0.03570
H          3.48020        1.15830        3.90570
H          4.98650        1.64890        3.03080
H          5.03270        0.35440        4.18780
H          3.63830       -1.41140        4.09670
H          2.67490       -1.81840        2.64290
H          4.38330       -2.35180        2.81260
H          5.86760        0.33510        1.03560
H          6.21620       -0.74290        2.37480
H          5.43530       -1.36630        0.95360
H         -5.50510        0.38880       -0.46410
H         -5.06610        1.85150       -1.37850
H         -5.94900        0.53180       -2.12040
H         -2.90440       -0.07460       -3.92450
H         -4.02710        1.32790       -3.74140
H         -4.65110       -0.28890       -3.91640
H         -3.74820       -2.00400       -2.64230
H         -4.95300       -1.71490       -1.38460
H         -3.19640       -1.76900       -0.97290
H         -2.85370        4.47740       -2.14360
H         -3.86560        3.13180       -2.56530
H         -3.41210        3.37310       -0.85440
H          0.29050        3.26610       -2.05420
H         -0.43390        2.98050       -0.45040
H         -0.78160        4.43340       -1.46940
H         -0.74770        3.07980       -3.97700
H         -2.41890        2.67980       -4.21810
H         -1.26960        1.38030       -3.86350
H         -2.13470        5.28810        1.90170
H         -3.31450        4.10800        1.31870
H         -1.84060        4.47300        0.40020
H         -3.03470        3.45050        3.72970
H         -1.50710        2.64610        4.30940
H         -1.58860        4.38560        4.03830
H          0.45390        3.60670        3.18780
H          0.54310        2.70210        1.67110
H          0.23880        4.48970        1.66440
H         -4.83800       -0.92440        2.21120
H         -4.05540       -0.46400        0.68420
H         -3.03920       -1.12090        1.85910
H         -2.81300        0.90380        4.32440
H         -4.32100        1.80100        4.18990
H         -4.39160        0.07830        4.17980
H         -4.39930        2.15730        0.67220
H         -5.67690        1.40930        1.69580
H         -4.74910        2.79760        2.28210
H          0.30080       -5.57950        4.66050
H         -0.41190       -5.68470        3.05620
H          1.21490       -6.35490        3.40980
H          1.77240       -4.15720        5.35020
H          3.08130       -3.82220        4.29420
H          1.82350       -2.56680        4.58170
H          2.26350       -5.46600        1.73880
H          3.14460       -4.05540        2.16590
H          1.71970       -3.88970        1.10720
H         -1.84550       -5.15190        4.79810
H         -3.30720       -4.19380        4.87220
H         -2.64100       -4.67790        3.29970
H         -0.03170       -2.12410        5.58480
H         -1.45370       -2.76370        6.44410
H         -0.28590       -3.87780        5.84400
H         -2.80180       -1.50890        5.30700
H         -3.51450       -2.10130        3.83340
H         -2.06630       -1.01060        3.76680
H         -1.19770       -4.83790       -2.75480
H         -0.33820       -6.37710       -2.58890
H         -1.84890       -6.18860       -1.75880
H          2.02850       -5.30400       -0.97950
H          1.38860       -3.61900       -1.10470
H          1.27850       -4.78200       -2.45650
H         -0.77940       -7.04620        0.11280
H          0.27070       -6.03710        1.10690
H          0.90610       -6.97870       -0.25400
H         -4.82370       -4.09670        1.46840
H         -4.37710       -2.66670        0.61280
H         -3.39910       -3.18650        2.01890
H         -3.07940       -4.00710       -1.93400
H         -4.69100       -3.99960       -1.17620
H         -3.89290       -5.50720       -1.43570
H         -2.06490       -5.81630        1.57990
H         -3.82510       -6.00460        1.47640
H         -2.84750       -6.54950        0.15660
H          1.21450        1.46470        3.88780
H          1.67850       -0.20650        4.35610
H          1.11320        2.11070        6.28310
H          0.16160        1.23400        7.54200
H          1.56440        0.41520        6.75400
