36
mol68-B-1
C         -2.12640       -5.45060       -0.19390
S         -0.99580       -4.02600       -0.13830
C         -2.28650       -2.83730        0.34360
Ge        -1.51280       -1.06460        0.53620
Ge        -0.81170       -0.19960       -1.58010
Ge         0.37260       -1.89020       -2.78930
Ge        -2.72120        0.48660       -2.84870
Ge         0.60800        1.68550       -1.18600
Ge         0.15640        3.39890       -2.79360
Ge         2.90220        1.03230       -1.36480
Ge         0.39780       -1.22900        1.96510
Ge        -0.16440       -2.50630        3.90840
Ge         2.17340       -2.32610        0.79640
Ge         1.07850        0.97410        2.60400
Ge         0.23120        1.47360        4.78540
Ge         3.46570        1.12850        2.63070
Ge         0.18880        2.52320        1.01440
Ge        -2.17730        2.68130        1.34140
Ge        -2.67540        3.89660        3.34200
Ge        -3.15620        3.81630       -0.52280
Ge        -3.07410        0.46660        1.50960
Ge        -3.40800       -0.10360        3.80860
Ge        -5.17640        0.36980        0.37030
C          1.04360        4.26110        1.18020
S          0.97690        4.82020        2.91050
C          1.84370        6.38730        2.58830
H         -2.92360       -5.27590       -0.94620
H         -1.55360       -6.35590       -0.48140
H         -2.58170       -5.61560        0.80490
H         -3.07950       -2.79740       -0.43180
H         -2.73030       -3.13600        1.31590
H          0.51420        4.98250        0.52370
H          2.10040        4.16680        0.85480
H          1.26810        6.99950        1.86310
H          2.85920        6.18630        2.18800
H          1.93750        6.95080        3.53910
