72
mol63-C-1
C          1.92750        6.04020       -2.37240
S          1.04620        4.45310       -2.49520
C          1.23670        4.04010       -0.73830
Ge         0.42320        2.31820       -0.26410
Ge        -0.30270        2.57330        2.14750
C          1.35370        3.26180        3.07200
Cl         1.68540        4.96470        2.67340
Cl         1.31990        3.15700        4.84680
Cl         2.77960        2.41790        2.55490
C         -1.48270        4.16550        2.59980
Cl        -3.20130        3.87740        2.56440
Cl        -1.19240        5.53860        1.51240
Cl        -1.23780        4.75610        4.25960
Ge        -1.19230        0.30140        2.84370
C         -0.05080       -0.22620        4.43750
Cl        -0.51180        0.77430        5.83880
Cl        -0.18530       -1.92050        4.98100
Cl         1.66580        0.04210        4.20390
C         -3.00420        0.07290        3.77470
Cl        -3.03980       -1.04900        5.15450
Cl        -4.22910       -0.66100        2.74410
Cl        -3.61330        1.57990        4.46450
Ge        -1.58740        2.21770       -1.79870
C         -1.25690        2.07370       -3.76920
Cl        -0.15010        0.79540       -4.18730
Cl        -2.74640        1.69460       -4.66540
Cl        -0.59000        3.58030       -4.44520
C         -2.55940        3.99870       -1.81270
Cl        -1.42880        5.36540       -1.88870
Cl        -3.56460        4.27780       -0.41490
Cl        -3.66720        4.21110       -3.18840
Ge        -2.85870        0.21080       -1.06540
C         -4.67290        0.79870       -0.45220
Cl        -5.75740       -0.58290       -0.15830
Cl        -5.46320        1.85980       -1.64170
Cl        -4.63070        1.73330        1.01700
C         -3.46240       -1.09880       -2.49280
Cl        -4.87710       -0.55650       -3.42490
Cl        -3.91580       -2.66800       -1.79740
Cl        -2.25980       -1.43690       -3.71000
Ge        -1.35550       -0.94080        0.61430
Ge         0.82790       -1.63210       -0.46380
C          0.71800       -2.83830       -2.09630
Cl         2.12030       -3.92180       -2.24910
Cl         0.70820       -2.03330       -3.64200
Cl        -0.73020       -3.86500       -2.06800
C          1.55550       -3.03360        0.79270
Cl         0.66060       -4.56810        0.67610
Cl         1.38090       -2.56420        2.45450
Cl         3.27240       -3.43240        0.55760
Ge         2.16090        0.50730       -0.75440
C          3.04680        1.01270       -2.53250
Cl         3.21060       -0.36110       -3.62960
Cl         2.24920        2.35180       -3.35220
Cl         4.70450        1.64930       -2.42850
C          3.88200        0.17840        0.27070
Cl         4.88470       -0.98410       -0.63510
Cl         3.64240       -0.53180        1.85540
Cl         4.91940        1.60260        0.55310
C         -2.30970       -2.62070        0.96000
S         -1.94620       -3.31780        2.59570
C         -3.02750       -4.76580        2.38510
H          1.95280        6.51730       -3.37330
H          1.40080        6.71510       -1.66590
H          2.96910        5.87260       -2.02760
H          0.76800        4.83620       -0.13120
H          2.31170        4.01110       -0.50230
H         -2.02870       -3.36180        0.19580
H         -3.39700       -2.43640        0.88360
H         -2.68990       -5.37120        1.51820
H         -4.07680       -4.43890        2.23040
H         -2.97720       -5.39000        3.30050
