180
mol67-E-2
C         -5.90980       -1.54380        0.82010
S         -4.33930       -0.98840        1.55230
C         -3.45220       -0.93190       -0.02570
Ge        -1.60140       -0.36110        0.18860
Ge        -0.42420       -2.53980        0.67440
Si        -1.67300       -3.90970        2.17160
C         -1.11620       -5.69360        2.26090
C         -3.51350       -4.05100        1.82870
C         -1.47690       -3.27510        3.87500
Si        -0.44970       -4.22920       -1.00810
C         -2.16640       -4.93530       -1.28990
C          0.10410       -3.61530       -2.65650
C          0.63600       -5.69320       -0.60130
Ge         1.86110       -1.94140        1.45700
Si         3.67060       -2.98330        0.29160
C          4.32710       -4.65670        0.84110
C          3.20020       -3.26950       -1.44730
C          5.20560       -1.92860        0.26440
Si         2.43610       -3.04260        3.53650
C          2.25160       -4.89210        3.33170
C          4.22660       -2.73540        4.00140
C          1.55820       -2.74740        5.16270
Ge        -1.71590        1.15860        2.17920
Si        -2.60930        0.38030        4.24470
C         -1.31400       -0.27520        5.39380
C         -3.43030        1.68580        5.30960
C         -3.92140       -0.90990        3.96490
Si        -3.51680        2.67900        1.79450
C         -5.19330        1.85370        1.97950
C         -3.50550        3.28130        0.05740
C         -3.61790        4.21870        2.85450
Ge         0.59620        1.97610        2.46390
Si         0.47380        4.36340        2.50000
C         -0.50480        5.03790        1.08390
C          2.11660        5.27020        2.50390
C         -0.40990        4.95760        4.03630
Si         1.61820        1.95860        4.61820
C          0.50610        2.48090        6.02730
C          3.11780        3.07060        4.74620
C          2.28140        0.30070        5.03970
Ge         2.01010        0.53280        0.93800
Ge         1.72460        0.96000       -1.54270
Si         3.11820        0.02360       -3.29490
C          2.67880       -1.56500       -4.17280
C          4.89400       -0.18460       -2.74310
C          3.21360        1.15690       -4.79130
Si         2.81310        3.08200       -1.85740
C          2.52190        4.16530       -0.41520
C          2.31840        4.04020       -3.38210
C          4.69430        3.07320       -1.94260
Ge        -0.74710        0.74650       -1.93360
Si        -1.43750        2.81820       -2.94740
C         -0.81900        4.32360       -2.06730
C         -3.28390        3.11140       -3.14650
C         -0.74470        2.94850       -4.69030
Si        -1.69100       -0.51150       -3.75170
C         -0.45550       -0.93080       -5.08200
C         -3.09920        0.27660       -4.70560
C         -2.59120       -2.02730       -3.17140
C          3.78990        1.24750        1.27550
S          4.61220        0.40830        2.65490
C          6.13230        1.40110        2.54320
H         -5.76840       -2.51270        0.29790
H         -6.65710       -1.67690        1.62850
H         -6.28660       -0.78430        0.10390
H         -3.97070       -0.25150       -0.72300
H         -3.44150       -1.94350       -0.46350
H         -0.03410       -5.77170        2.09130
H         -1.65090       -6.30220        1.50810
H         -1.35570       -6.10340        3.26330
H         -4.01960       -4.40980        2.74800
H         -3.70710       -4.78960        1.03020
H         -3.95890       -3.09050        1.54060
H         -0.76080       -3.91290        4.42090
H         -2.44290       -3.29020        4.41610
H         -1.09380       -2.25340        3.74560
H         -2.94200       -4.16550       -1.12320
H         -2.24850       -5.31010       -2.33010
H         -2.34560       -5.78870       -0.61040
H          0.12470       -2.51660       -2.57170
H          1.08720       -4.02850       -2.93650
H         -0.59790       -3.94270       -3.44480
H          1.12610       -6.06900       -1.52220
H          0.03470       -6.51990       -0.17730
H          1.40100       -5.37810        0.12410
H          3.60170       -5.46410        0.63470
H          4.61420       -4.65960        1.90670
H          5.23830       -4.87940        0.24930
H          2.46160       -2.49210       -1.69630
H          4.10060       -3.22420       -2.08620
H          2.77770       -4.28310       -1.53880
H          4.93400       -0.92030       -0.05900
H          5.93340       -2.35720       -0.45420
H          5.68620       -1.88450        1.25740
H          1.37340       -5.25880        3.89820
H          3.15430       -5.41120        3.71240
H          2.10370       -5.13190        2.27070
H          4.88730       -2.76960        3.12330
H          4.55220       -3.51270        4.72240
H          4.32560       -1.74920        4.49190
H          1.19640       -3.70010        5.59630
H          2.26840       -2.32490        5.90040
H          0.71500       -2.07210        5.02830
H         -0.36850       -0.24320        4.83700
H         -1.24250        0.35660        6.29820
H         -1.56690       -1.29590        5.73810
H         -2.75790        2.55000        5.45160
H         -4.38810        2.01900        4.87980
H         -3.64770        1.24630        6.30460
H         -3.57570       -1.59740        3.18130
H         -4.10270       -1.46770        4.90600
H         -4.86740       -0.43650        3.64210
H         -5.16730        0.82270        1.59410
H         -5.94900        2.42820        1.40640
H         -5.52050        1.83620        3.03260
H         -4.48000        3.07170       -0.42540
H         -3.33320        4.37500        0.03560
H         -2.69750        2.73500       -0.44970
H         -3.58380        3.99100        3.93000
H         -2.80510        4.91360        2.60320
H         -4.57890        4.72920        2.63990
H         -1.07780        4.19390        0.67620
H          0.16450        5.47110        0.32170
H         -1.17720        5.85190        1.41550
H          2.14160        6.01150        1.68040
H          2.24130        5.82750        3.45350
H          2.95190        4.55860        2.38160
H          0.31390        5.06930        4.86460
H         -0.86370        5.95140        3.84710
H         -1.20110        4.23900        4.31590
H          0.59810        1.76750        6.87030
H          0.80440        3.47890        6.40250
H         -0.53740        2.51150        5.68100
H          2.80000        4.11930        4.88780
H          3.71240        2.77910        5.63580
H          3.75380        2.97040        3.84770
H          3.35440        0.36230        5.30940
H          1.72520       -0.09970        5.90780
H          2.15080       -0.31800        4.14050
H          3.49800       -2.30360       -4.08850
H          1.76430       -1.96380       -3.75720
H          2.51220       -1.38590       -5.25400
H          5.57430        0.14970       -3.55250
H          5.11210       -1.24560       -2.53280
H          5.09060        0.41180       -1.83820
H          3.75390        2.09160       -4.57400
H          3.77670        0.64370       -5.59770
H          2.19640        1.37590       -5.16570
H          3.46350        4.28400        0.15500
H          1.76890        3.64570        0.18880
H          2.17250        5.16290       -0.74570
H          3.22550        4.42790       -3.88850
H          1.68950        4.90840       -3.11830
H          1.79070        3.37590       -4.07540
H          5.04060        4.12430       -2.01740
H          5.14180        2.64550       -1.02880
H          5.06900        2.54200       -2.83370
H         -1.61820        4.75450       -1.44250
H          0.04320        4.02550       -1.45730
H         -0.53610        5.10580       -2.79740
H         -3.55000        4.11560       -2.75940
H         -3.86330        2.35710       -2.59790
H         -3.57430        3.08070       -4.21460
H         -0.23430        3.92120       -4.82730
H         -1.54900        2.92590       -5.44740
H         -0.04160        2.11690       -4.87980
H         -0.92490       -0.80310       -6.07850
H          0.40280       -0.24040       -5.00810
H         -0.13380       -1.98490       -4.99210
H         -2.75450        1.12470       -5.31400
H         -3.91650        0.57290       -4.02380
H         -3.50900       -0.47860       -5.40750
H         -3.66800       -1.81190       -3.03130
H         -2.50350       -2.83680       -3.92200
H         -2.16920       -2.31500       -2.20540
H          3.69860        2.32540        1.50550
H          4.38830        1.13430        0.36110
H          6.83060        1.08270        3.34380
H          5.89730        2.47750        2.67740
H          6.61830        1.24220        1.55800
