72
mol62-A-1
C         -1.53790        5.32140        2.84150
S         -1.61280        4.07050        1.52210
C         -0.41970        2.95200        2.31570
Ge        -0.14190        1.36390        1.22470
Ge         0.78200        1.95550       -0.93280
C         -0.38330        3.12670       -1.96580
F         -1.33950        2.38640       -2.62380
F         -0.98960        4.03620       -1.12120
F          0.36830        3.81020       -2.90190
C          2.42590        2.99430       -0.76610
F          3.21600        2.48980        0.24000
F          3.12020        2.95040       -1.95930
F          2.11170        4.30790       -0.47620
Ge         1.17260       -0.08090       -2.15080
C          3.08730       -0.33970       -2.41370
F          3.34730       -1.67740       -2.63700
F          3.78160        0.09500       -1.30730
F          3.50410        0.38880       -3.51080
C          0.49650        0.04240       -3.97690
F          0.96020        1.20520       -4.56100
F         -0.87750        0.05040       -3.98620
F          0.94560       -1.04330       -4.70350
Ge         1.32450       -0.21040        2.34550
C          0.76620       -0.43350        4.20100
F         -0.55190       -0.81780        4.26660
F          0.92140        0.76560        4.86940
F          1.54830       -1.39760        4.80640
C          3.18600        0.35350        2.50720
F          3.24790        1.66410        2.93300
F          3.82590       -0.44810        3.43230
F          3.82950        0.22690        1.29830
Ge         1.26940       -2.29500        1.14190
C          0.46050       -3.64590        2.29510
F          0.15120       -4.77130        1.56010
F          1.35590       -3.99230        3.28800
F         -0.67800       -3.14910        2.88550
C          3.06290       -2.99540        0.82940
F          3.72920       -3.11430        2.03340
F          3.77280       -2.15630        0.00400
F          2.96780       -4.23930        0.23600
Ge         0.14370       -1.93100       -0.97580
Ge        -2.19940       -1.46140       -0.59150
C         -3.16970       -1.03580       -2.22670
F         -2.99870        0.29160       -2.54970
F         -4.51690       -1.27390       -2.03460
F         -2.71160       -1.83450       -3.25640
C         -3.15390       -3.01580        0.10310
F         -3.43860       -3.88150       -0.93500
F         -4.33770       -2.60580        0.68470
F         -2.39000       -3.67330        1.03860
Ge        -2.33910        0.38730        0.94010
C         -3.61780        1.72580        0.32370
F         -4.80940        1.10720       -0.00160
F         -3.84060        2.64220        1.33310
F         -3.13590        2.38480       -0.78140
C         -3.11280       -0.20710        2.62830
F         -2.74380        0.66040        3.63750
F         -2.68430       -1.48120        2.92470
F         -4.49020       -0.21730        2.52530
C          0.35600       -3.47020       -2.14880
S         -0.45300       -4.93300       -1.43470
C         -0.00340       -6.03370       -2.81210
H         -1.86290        4.87870        3.80610
H         -0.50400        5.71360        2.93720
H         -2.21740        6.15960        2.58430
H          0.55380        3.46830        2.44410
H         -0.80380        2.63520        3.30730
H         -0.10090       -3.23010       -3.13100
H          1.43960       -3.66620       -2.28330
H          1.10080       -6.09510       -2.90650
H         -0.44160       -5.65740       -3.76000
H         -0.40350       -7.04820       -2.60970
