180
mol61-C-1
C          5.39950        2.91060       -1.73070
S          4.59790        1.48310       -0.93580
C          2.91490        1.99000       -1.37250
Ge         1.45510        0.80840       -0.77710
Ge         1.86690        0.43570        1.80860
C          3.60440       -0.47550        2.47640
C          4.90360        0.11870        1.84540
C          3.75410       -0.33400        4.01940
C          3.51720       -1.97720        2.14640
C          2.17300        2.29260        2.73590
C          1.95370        2.30800        4.27450
C          1.23880        3.32660        2.11890
C          3.60480        2.84520        2.50510
Ge        -0.10720       -1.12670        2.47340
C          0.24070       -2.95990        3.42770
C          1.24460       -2.91930        4.61270
C         -1.05670       -3.57040        4.01820
C          0.77670       -3.97490        2.41530
C         -1.19890       -0.25520        4.04030
C         -1.39810        1.24280        3.81240
C         -0.41940       -0.36890        5.38440
C         -2.60960       -0.88380        4.25780
Ge         2.07110       -1.17170       -2.40790
C          4.15760       -1.37200       -2.35510
C          4.65810       -1.09300       -0.93720
C          4.73170       -2.75190       -2.78190
C          4.88000       -0.35220       -3.27280
C          1.83780       -1.01070       -4.48350
C          0.34890       -1.02710       -4.83370
C          2.47410        0.26100       -5.12870
C          2.46610       -2.22780       -5.20740
Ge         0.56640       -3.08450       -1.51400
C          1.85500       -4.63810       -0.96980
C          2.48930       -5.27990       -2.23070
C          1.18810       -5.78840       -0.16350
C          3.02330       -4.09820       -0.14040
C         -0.65150       -4.16090       -2.82420
C         -0.07600       -4.39050       -4.24330
C         -1.02870       -5.58270       -2.33190
C         -1.97420       -3.41820       -2.96090
Ge        -1.08150       -1.76650        0.10210
Ge        -2.55730        0.09500       -1.05370
C         -3.52700       -0.17810       -2.88770
C         -4.38370       -1.47800       -2.99940
C         -4.48290        1.00620       -3.18100
C         -2.49870       -0.18740       -4.02150
C         -4.27700        0.31980        0.15620
C         -3.90290        0.09080        1.62420
C         -5.36700       -0.74000       -0.15830
C         -5.04030        1.68370        0.07610
Ge        -0.80980        1.99690       -1.35310
C         -1.50360        3.51090       -0.17240
C         -0.57090        4.73800        0.05690
C         -1.76760        2.84840        1.15380
C         -2.83960        4.06600       -0.70640
C         -0.59410        3.03210       -3.13800
C         -0.02730        4.46030       -2.96900
C         -1.90680        3.22860       -3.93010
C          0.41160        2.29170       -4.01230
C         -2.58880       -2.95790        0.52450
S         -2.15990       -4.65340        0.98550
C         -3.88230       -5.18680        1.23170
H          6.49730        2.82910       -1.59630
H          5.17040        2.92110       -2.81670
H          5.04930        3.85430       -1.26280
H          2.86330        2.08270       -2.46900
H          2.75270        2.97560       -0.91860
H          5.51280        0.73480        2.53240
H          5.63700       -0.65370        1.53960
H          4.66610        0.75340        0.98050
H          4.33290        0.55110        4.33270
H          2.77720       -0.24580        4.51260
H          4.31240       -1.18230        4.47010
H          4.33850       -2.34170        1.50830
H          3.58210       -2.65010        3.02090
H          2.56560       -2.16760        1.63540
H          2.87140        2.10410        4.85600
H          1.21610        1.57470        4.59280
H          1.61720        3.30670        4.62980
H          0.31680        3.48020        2.70540
H          1.01560        2.98540        1.10620
H          1.67300        4.34670        2.04120
H          3.67770        3.92620        2.75510
H          4.34920        2.39500        3.17420
H          3.92910        2.72600        1.46270
H          1.71900       -3.90850        4.79470
H          0.79610       -2.68900        5.59160
H          2.02990       -2.20160        4.42780
H         -1.35030       -3.10850        4.97150
H         -0.92080       -4.64290        4.28010
H         -1.89830       -3.49980        3.31930
H          1.80740       -4.28540        2.65850
H          0.74040       -3.55500        1.40200
H          0.22070       -4.93350        2.41720
H         -2.25790        1.45250        3.17960
H         -0.49950        1.64260        3.36460
H         -1.61590        1.81170        4.74130
H         -0.61010        0.47260        6.08370
H         -0.70640       -1.25040        5.98200
H          0.66510       -0.40370        5.21510
H         -2.85940       -1.57850        3.44650
H         -2.72200       -1.43890        5.20960
H         -3.41740       -0.12440        4.32200
H          3.79430       -0.88270       -0.29280
H          5.35270       -0.22860       -0.88320
H          5.23040       -1.94130       -0.50610
H          4.38270       -3.12050       -3.74790
H          4.55980       -3.53730       -2.05130
H          5.84040       -2.69990       -2.86080
H          4.50900        0.67380       -3.14090
H          5.96950       -0.31530       -3.04750
H          4.84920       -0.65120       -4.33020
H         -0.18800       -1.46650       -3.98380
H         -0.05650       -0.04200       -5.08050
H          0.10470       -1.57510       -5.76710
H          2.73010        1.00890       -4.37360
H          1.81610        0.74130       -5.88250
H          3.39160        0.06370       -5.71620
H          2.29080       -3.15140       -4.64400
H          2.06250       -2.36700       -6.23340
H          3.54950       -2.11100       -5.37970
H          2.73430       -4.51160       -2.97300
H          3.41420       -5.85060       -1.99900
H          1.84760       -6.03110       -2.71400
H          0.99810       -6.70450       -0.75530
H          0.23200       -5.46600        0.24610
H          1.81610       -6.14970        0.67910
H          3.14170       -3.03860       -0.35480
H          2.89450       -4.23380        0.92620
H          3.98170       -4.63480       -0.29770
H         -0.74410       -5.05980       -4.83010
H          0.90700       -4.87230       -4.25520
H         -0.02670       -3.48570       -4.83440
H         -0.23940       -6.32860       -2.50110
H         -1.89350       -5.98130       -2.90930
H         -1.34000       -5.59070       -1.28570
H         -1.84170       -2.38060       -2.63320
H         -2.76470       -3.86520       -2.32680
H         -2.36900       -3.44870       -3.99890
H         -4.23040       -2.02170       -3.95430
H         -5.47700       -1.30020       -3.00890
H         -4.17390       -2.16700       -2.17640
H         -4.74710        1.07930       -4.25800
H         -5.46310        0.89770       -2.68780
H         -4.03600        1.95970       -2.87340
H         -1.59740        0.32340       -3.66120
H         -2.84940        0.29400       -4.95810
H         -2.25880       -1.19520       -4.38180
H         -4.40440       -0.79200        2.07170
H         -4.20630        0.93380        2.28000
H         -2.81680       -0.05990        1.69850
H         -6.15320       -0.74700        0.63010
H         -4.97210       -1.76370       -0.18330
H         -5.92850       -0.50660       -1.07290
H         -6.04850        1.59030        0.53710
H         -4.59520        2.50580        0.65370
H         -5.22000        2.04500       -0.93850
H          0.45430        4.53780       -0.24840
H         -0.56030        5.07430        1.11390
H         -0.88730        5.65290       -0.48160
H         -2.61460        2.19280        1.07170
H         -0.94990        2.15460        1.37370
H         -1.96650        3.56550        1.97950
H         -3.44590        4.51490        0.11050
H         -3.41110        3.27130       -1.19430
H         -2.70630        4.86710       -1.45730
H          0.25370        4.88860       -3.95750
H         -0.77570        5.16270       -2.57120
H          0.89330        4.46520       -2.37100
H         -2.69020        3.72440       -3.33990
H         -2.29840        2.30190       -4.34020
H         -1.73350        3.87440       -4.81950
H          1.39510        2.80530       -4.06610
H          0.60010        1.30820       -3.56660
H          0.06370        2.18930       -5.06230
H         -3.22730       -3.01870       -0.36200
H         -3.16830       -2.51870        1.34950
H         -4.45410       -5.07970        0.28630
H         -4.35890       -4.58130        2.03070
H         -3.88960       -6.25310        1.53690
