72
mol62-D-1
C         -3.76190       -4.48420       -2.86250
S         -3.42680       -2.77200       -2.34550
C         -1.82530       -3.16340       -1.57960
Ge        -1.01450       -1.55860       -0.83330
Ge         1.19380       -2.03530        0.05040
C          1.22820       -3.14500        1.65560
F          0.85220       -2.40700        2.75350
F          0.37920       -4.22150        1.50460
F          2.51180       -3.61270        1.85830
C          2.21190       -3.08800       -1.23800
F          3.49660       -3.27790       -0.76750
F          2.26840       -2.44460       -2.45130
F          1.60130       -4.31580       -1.40510
Ge         2.28210        0.05270        0.55300
C          3.10100        0.03190        2.32320
F          2.14010       -0.08290        3.29920
F          3.97050       -1.03710        2.41780
F          3.80090        1.20760        2.51380
C          3.81320        0.24750       -0.64160
F          3.45290       -0.06010       -1.93280
F          4.29420        1.53910       -0.58720
F          4.81310       -0.61910       -0.24540
Ge        -0.84650       -0.00420       -2.68200
C          0.34380       -0.64570       -4.08690
F          1.64570       -0.30370       -3.79920
F         -0.00940       -0.06610       -5.29000
F          0.23100       -2.01760       -4.19840
C         -2.55740        0.16250       -3.60500
F         -3.56510        0.43940       -2.71290
F         -2.48110        1.18270       -4.53320
F         -2.84300       -1.02340       -4.25320
Ge        -0.07910        2.12480       -1.86850
C         -1.49300        3.45150       -2.06170
F         -1.49840        3.92890       -3.35810
F         -1.26250        4.50120       -1.19410
F         -2.71850        2.88280       -1.79640
C          1.35060        2.82760       -2.99630
F          2.54840        2.22630       -2.68840
F          1.04730        2.59180       -4.32300
F          1.46590        4.18950       -2.79600
Ge         0.63500        1.82900        0.42510
Ge        -1.27070        1.29010        1.81800
C         -0.76400        0.93990        3.66810
F         -0.39600       -0.37800        3.81850
F         -1.83960        1.19530        4.49640
F          0.28430        1.76520        4.02500
C         -2.46750        2.82260        1.97830
F         -1.84530        3.81180        2.71490
F         -3.62640        2.43510        2.62250
F         -2.78660        3.32110        0.73820
Ge        -2.41140       -0.62070        0.90670
C         -2.81570       -1.92280        2.30350
F         -1.70200       -2.67220        2.60200
F         -3.24060       -1.26140        3.43900
F         -3.82170       -2.76420        1.86960
C         -4.17400       -0.09110        0.26660
F         -4.11650        1.16000       -0.30510
F         -5.05420       -0.05100        1.33060
F         -4.62480       -1.01210       -0.65890
C          1.34830        3.49090        1.14580
S          2.74500        4.07520        0.13970
C          3.04340        5.55670        1.15320
H         -3.80500       -5.14930       -1.97490
H         -4.73960       -4.51920       -3.38520
H         -2.97040       -4.83490       -3.55710
H         -1.13710       -3.58380       -2.34180
H         -1.96770       -3.90080       -0.76300
H          0.54010        4.25110        1.14410
H          1.68350        3.30990        2.18780
H          3.29240        5.26300        2.19420
H          2.14440        6.20780        1.15110
H          3.89670        6.12160        0.72560
