180
mol69-C-1
C          5.06720        2.73080        2.98750
S          3.87170        2.56050        1.62660
C          2.89370        1.28140        2.45070
Ge         1.38700        0.69790        1.36260
Ge         2.26790        0.93720       -0.97320
Ge         4.39500       -0.25940       -1.05880
C          5.79380        0.78090       -0.18800
C          5.07970       -0.69350       -2.82630
C          4.35080       -1.89310       -0.06570
Ge         3.27740        2.99200       -1.85010
C          2.04590        4.25340       -2.66510
C          4.51020        2.58290       -3.30330
C          4.40750        3.92440       -0.56360
Ge         0.43170        0.22720       -2.44230
Ge        -0.21000        1.64850       -4.32150
C         -1.31740        0.65230       -5.57800
C          1.23830        2.40520       -5.37580
C         -1.32350        3.10710       -3.78320
Ge         1.21130       -1.55700       -3.93200
C          2.46990       -2.81430       -3.15290
C         -0.22940       -2.53630       -4.80760
C          2.20960       -0.81050       -5.43040
Ge        -0.37010        2.39330        1.94910
Ge        -1.32810        2.53980        4.21110
C         -2.76790        3.83800        4.27910
C         -0.17430        3.23230        5.62630
C         -1.98280        0.86630        4.89700
Ge         0.78160        4.54640        2.20500
C         -0.43010        5.93410        2.81740
C          2.24090        4.48040        3.50050
C          1.71220        5.26640        0.69180
Ge        -2.20090        2.15040        0.27140
Ge        -2.61500        4.38780       -0.68390
C         -3.78520        4.50340       -2.24480
C         -3.47260        5.58240        0.59840
C         -0.99410        5.28690       -1.18600
Ge        -4.56690        1.85970        0.88770
C         -5.20610        0.13070        0.33250
C         -5.13050        2.17850        2.71800
C         -5.80520        2.97010       -0.12400
Ge        -1.57740        0.02930       -0.95470
Ge        -1.46220       -1.91460        0.63110
Ge        -3.33750       -2.48950        2.11720
C         -4.93380       -3.24900        1.28760
C         -2.85930       -3.93330        3.32140
C         -3.99200       -1.01400        3.16330
Ge        -1.79260       -3.94330       -0.71150
C         -3.44270       -3.90620       -1.75450
C         -0.52980       -4.33140       -2.10020
C         -1.88770       -5.52870        0.40490
Ge         0.62240       -1.63310        1.97300
Ge         0.66230       -1.69440        4.43400
C          1.18160        0.01650        5.14790
C          2.09390       -2.77570        5.18980
C         -0.89220       -2.33350        5.40580
Ge         1.89340       -3.74100        1.79450
C          3.72150       -3.75700        2.48490
C          1.03940       -5.19440        2.77670
C          2.01860       -4.37580       -0.01350
C         -2.97200       -0.53730       -2.19100
S         -3.79650        0.86870       -2.97550
C         -4.92930       -0.15740       -3.96240
H          4.54640        3.03670        3.91870
H          5.59680        1.76950        3.15260
H          5.81030        3.50910        2.71940
H          2.49760        1.67540        3.40230
H          3.53970        0.42010        2.67400
H          5.35580        1.41620        0.60360
H          6.31430        1.41460       -0.93020
H          6.53790        0.09580        0.26620
H          5.48270       -1.72640       -2.82500
H          4.27050       -0.61790       -3.56690
H          5.89860        0.00090       -3.09890
H          3.35210       -1.92790        0.38500
H          5.13380       -1.87900        0.71750
H          4.52930       -2.75690       -0.73450
H          1.05010        3.79180       -2.68170
H          2.36530        4.47770       -3.70150
H          2.02760        5.21190       -2.11190
H          4.13910        1.72470       -3.89040
H          5.51190        2.34890       -2.89780
H          4.60470        3.46530       -3.96820
H          5.46340        3.61840       -0.69270
H          4.08940        3.69450        0.46880
H          4.34200        5.01640       -0.74430
H         -0.68520        0.19290       -6.36070
H         -1.88130       -0.13470       -5.04420
H         -2.03290        1.34160       -6.07000
H          1.01200        3.46470       -5.61080
H          2.17870        2.34950       -4.80890
H          1.34570        1.85090       -6.32890
H         -2.28750        3.06560       -4.32700
H         -1.47900        2.96730       -2.70720
H         -0.82930        4.07270       -4.00420
H          2.71300       -2.46660       -2.14050
H          3.39400       -2.85060       -3.76190
H          2.05160       -3.83880       -3.12850
H         -1.15100       -2.49390       -4.20020
H          0.08030       -3.59140       -4.94990
H         -0.43400       -2.10160       -5.80480
H          2.91390       -1.57200       -5.82220
H          1.51790       -0.52950       -6.24600
H          2.77960        0.07790       -5.10640
H         -2.39300        4.79710        4.68860
H         -3.57820        3.47150        4.94090
H         -3.14260        4.00240        3.25810
H          0.07990        4.29020        5.42430
H          0.74790        2.63700        5.74170
H         -0.73150        3.19150        6.58440
H         -1.69400        0.09230        4.16840
H         -3.07800        0.91220        5.03980
H         -1.52360        0.65560        5.88200
H         -1.46600        5.61660        2.62540
H         -0.29290        6.10430        3.90350
H         -0.22560        6.87840        2.27330
H          2.05870        3.73180        4.28370
H          3.18760        4.22280        2.98520
H          2.35540        5.47820        3.97090
H          1.18120        6.13370        0.26310
H          2.71660        5.61490        1.00260
H          1.79480        4.43830       -0.01470
H         -3.98940        3.50740       -2.65880
H         -3.30630        5.12930       -3.02450
H         -4.74690        4.97940       -1.96940
H         -2.75090        6.33550        0.96470
H         -3.89160        5.00560        1.44040
H         -4.29760        6.13060        0.10090
H         -0.87270        6.19010       -0.55860
H         -0.18320        4.56700       -1.02220
H         -1.02690        5.59840       -2.24740
H         -5.57570        0.17920       -0.71060
H         -6.03730       -0.19610        0.98820
H         -4.35910       -0.56120        0.38850
H         -4.37000        1.82420        3.42540
H         -5.31590        3.26120        2.86550
H         -6.07770        1.63310        2.90530
H         -6.84050        2.70120        0.16920
H         -5.65430        4.04050        0.10010
H         -5.69170        2.76950       -1.20620
H         -5.69710       -3.40800        2.07640
H         -4.69660       -4.23250        0.83940
H         -5.36590       -2.57970        0.52390
H         -3.24990       -4.89470        2.93260
H         -3.30480       -3.75660        4.32110
H         -1.76280       -3.98840        3.38750
H         -3.46180       -0.11620        2.80830
H         -5.08270       -0.89900        3.01400
H         -3.81780       -1.19930        4.23910
H         -3.24300       -3.47530       -2.75590
H         -3.81470       -4.94290       -1.88440
H         -4.22080       -3.30280       -1.26720
H          0.03110       -3.40600       -2.24480
H          0.12200       -5.18050       -1.83130
H         -1.06820       -4.60930       -3.02740
H         -1.32230       -6.35650       -0.06910
H         -2.94370       -5.83800        0.53420
H         -1.45030       -5.30170        1.38880
H          0.75200        0.15250        6.16020
H          2.28500        0.07900        5.21990
H          0.81660        0.78130        4.45420
H          1.95490       -3.84410        4.95010
H          2.07340       -2.66640        6.29340
H          3.07290       -2.40980        4.82670
H         -1.81780       -2.00420        4.91680
H         -0.86310       -3.44010        5.46510
H         -0.86640       -1.92750        6.43740
H          3.77880       -4.36990        3.40600
H          4.06490       -2.73990        2.71510
H          4.40030       -4.20770        1.73320
H          0.57070       -5.90920        2.07540
H          1.80390       -5.75190        3.35420
H          0.28990       -4.79440        3.48060
H          1.48470       -5.34140       -0.09530
H          1.55780       -3.60300       -0.64030
H          3.07450       -4.53260       -0.30560
H         -3.71790       -1.13870       -1.65140
H         -2.50740       -1.17150       -2.96520
H         -4.35280       -0.82520       -4.63590
H         -5.57250        0.50460       -4.57730
H         -5.57400       -0.76510       -3.29370
