72
mol63-E-2
C          4.53110        1.64290       -3.67760
S          2.76920        1.28470       -3.39890
C          2.94690        1.04460       -1.60900
Ge         1.25120        0.60600       -0.72330
Ge         1.12660       -1.90840       -0.98630
C          2.48320       -3.02110       -0.01930
Cl         4.11050       -2.84750       -0.72130
Cl         2.06550       -4.75030       -0.04960
Cl         2.61430       -2.62590        1.67200
C          1.62510       -2.45000       -2.87720
Cl         3.03200       -1.54530       -3.47200
Cl         2.04650       -4.16930       -3.05350
Cl         0.35850       -2.20380       -4.05070
Ge        -1.13460       -2.53180       -0.16160
C         -2.14840       -3.37680       -1.66870
Cl        -2.54480       -2.25610       -2.94170
Cl        -3.67930       -4.10150       -1.11880
Cl        -1.20420       -4.65540       -2.46830
C         -1.26910       -4.06910        1.15570
Cl        -1.10800       -5.67800        0.41390
Cl        -0.04810       -4.05500        2.40110
Cl        -2.83240       -4.08060        1.99710
Ge        -0.53300        1.74160       -2.11430
C         -0.54840        1.34720       -4.10840
Cl         1.07100        0.95440       -4.72120
Cl        -1.15390        2.71090       -5.07650
Cl        -1.58710        0.04510       -4.62170
C          0.12730        3.64180       -2.27450
Cl         0.73270        4.24450       -0.76350
Cl        -1.08760        4.81270       -2.83550
Cl         1.51140        3.77940       -3.38550
Ge        -2.71900        1.34460       -0.88900
C         -3.43950        3.20550       -0.51630
Cl        -4.80840        3.31060        0.62360
Cl        -4.01900        3.92070       -2.04270
Cl        -2.24020        4.32160        0.10820
C         -4.39310        0.63700       -1.83700
Cl        -5.92580        1.43840       -1.42190
Cl        -4.78490       -1.02590       -1.41010
Cl        -4.30970        0.81070       -3.59220
Ge        -2.07070       -0.41060        0.85410
Ge        -0.62320        0.37680        2.77560
C         -1.83400        1.62180        3.80340
Cl        -3.08790        0.74110        4.70960
Cl        -2.72840        2.66990        2.74800
Cl        -1.00780        2.67150        4.97720
C         -0.30970       -0.93070        4.30020
Cl         1.12820       -1.90890        4.18440
Cl        -1.66160       -2.06550        4.49160
Cl        -0.08460       -0.12120        5.86790
Ge         1.46060        1.35890        1.71180
C          3.34850        0.84470        2.32270
Cl         4.20730       -0.16080        1.15970
Cl         4.50660        2.18330        2.49790
Cl         3.36790        0.08360        3.91590
C          1.51990        3.27450        2.38090
Cl         1.97420        3.27400        4.10460
Cl        -0.02050        4.10710        2.29400
Cl         2.68020        4.36060        1.56980
C         -3.73380       -1.03460        1.68880
S         -4.98350        0.27250        1.84050
C         -6.22630       -0.79910        2.62630
H          4.69440        1.83290       -4.75810
H          5.15060        0.77570       -3.36750
H          4.83200        2.54480       -3.10480
H          3.66760        0.23030       -1.43690
H          3.35410        1.97040       -1.16290
H         -4.15080       -1.85910        1.08190
H         -3.51170       -1.42230        2.69500
H         -6.49330       -1.63520        1.94680
H         -7.13720       -0.20200        2.83580
H         -5.83280       -1.20200        3.58270
