180
mol67-E-1
C         -5.44560       -2.55130       -0.62190
S         -3.62650       -2.53500       -0.66190
C         -3.47780       -0.87750        0.05290
Ge        -1.62010       -0.32160        0.24590
Ge        -0.45650       -2.50810        0.72940
Si        -1.70150       -3.86080        2.24530
C         -1.15910       -5.64900        2.33680
C         -3.54660       -3.98790        1.92180
C         -1.48270       -3.22050        3.94380
Si        -0.51360       -4.20460       -0.94530
C         -2.23910       -4.89720       -1.20640
C          0.02850       -3.60270       -2.60190
C          0.56370       -5.67610       -0.54300
Ge         1.84170       -1.92600        1.48600
Si         3.63020       -2.98830        0.30690
C          4.27800       -4.66490        0.85710
C          3.13970       -3.27810       -1.42580
C          5.17380       -1.94690        0.25930
Si         2.42850       -3.02290        3.56440
C          2.22610       -4.87170        3.36970
C          4.22610       -2.72910        4.00970
C          1.56980       -2.71320        5.19820
Ge        -1.70130        1.20770        2.23080
Si        -2.58010        0.44600        4.30870
C         -1.27880       -0.21550        5.44740
C         -3.37910        1.76310        5.37610
C         -3.90590       -0.83410        4.04800
Si        -3.49300        2.74170        1.85770
C         -5.17450        1.93160        2.06340
C         -3.49440        3.33630        0.11790
C         -3.57020        4.28680        2.91180
Ge         0.62050        2.00660        2.48830
Si         0.51880        4.39500        2.51510
C         -0.46840        5.07160        1.10590
C          2.16910        5.28770        2.49810
C         -0.34410        5.00340        4.05750
Si         1.66430        1.98970        4.63210
C          0.57110        2.52770        6.05010
C          3.17450        3.08940        4.73990
C          2.31760        0.32800        5.05420
Ge         2.00640        0.54460        0.95450
Ge         1.69920        0.96340       -1.52500
Si         3.06680        0.00750       -3.28720
C          2.60500       -1.58110       -4.15350
C          4.84630       -0.21350       -2.75260
C          3.15660        1.13340       -4.78950
Si         2.80240        3.07470       -1.86030
C          2.53530        4.16660       -0.42000
C          2.30030        4.03040       -3.38410
C          4.68250        3.04930       -1.96450
Ge        -0.77810        0.76930       -1.88990
Si        -1.46120        2.84250       -2.90580
C         -0.82090        4.34630       -2.03870
C         -3.30690        3.15060       -3.08740
C         -0.78510        2.95920       -4.65620
Si        -1.75120       -0.48840       -3.69260
C         -0.53300       -0.92410       -5.03350
C         -3.16230        0.30750       -4.63560
C         -2.65830       -1.99390       -3.09640
C          3.79550        1.24550        1.27070
S          4.62470        0.40540        2.64540
C          6.15200        1.38460        2.51380
H         -5.85040       -1.71400       -1.22740
H         -5.80690       -3.50970       -1.04700
H         -5.80510       -2.46430        0.42450
H         -3.97690       -0.84760        1.03680
H         -3.97470       -0.15630       -0.61620
H         -0.07950       -5.73710        2.15660
H         -1.70660       -6.25620        1.59220
H         -1.39180       -6.05240        3.34350
H         -4.04640       -4.33830        2.84770
H         -3.75460       -4.72820        1.12850
H         -3.98670       -3.02480        1.63390
H         -0.76650       -3.86200        4.48520
H         -2.44320       -3.22500        4.49470
H         -1.09230       -2.20270        3.80590
H         -3.00630       -4.12010       -1.03530
H         -2.33500       -5.27590       -2.24410
H         -2.41860       -5.74610       -0.52140
H          0.05930       -2.50380       -2.52230
H          1.00520       -4.02550       -2.89010
H         -0.68420       -3.92750       -3.38160
H          1.04110       -6.06000       -1.46720
H         -0.04030       -6.49580       -0.10930
H          1.33880       -5.36430        0.17310
H          3.54370       -5.46700        0.66170
H          4.57600       -4.66560        1.91970
H          5.18130       -4.89790        0.25700
H          2.40520       -2.49550       -1.67070
H          4.03380       -3.24330       -2.07410
H          2.70770       -4.28840       -1.50860
H          4.90750       -0.93780       -0.06570
H          5.89060       -2.38490       -0.46470
H          5.66490       -1.90260        1.24720
H          1.35070       -5.22830        3.94680
H          3.12820       -5.39680        3.74360
H          2.06540       -5.11480        2.31140
H          4.87750       -2.77270        3.12500
H          4.55250       -3.50590        4.73080
H          4.33860       -1.74160        4.49480
H          1.20430       -3.66080        5.63960
H          2.29100       -2.29360        5.92670
H          0.73100       -2.03120        5.06930
H         -0.33880       -0.19400        4.88090
H         -1.19260        0.41960        6.34830
H         -1.53690       -1.23250        5.79890
H         -2.69790        2.62220        5.50740
H         -4.33830        2.10270        4.95460
H         -3.59000        1.32990        6.37520
H         -3.57410       -1.52800        3.26400
H         -4.08240       -1.38620        4.99340
H         -4.85110       -0.35400        3.73270
H         -5.16120        0.89880        1.68230
H         -5.93110        2.51000        1.49540
H         -5.49100        1.92150        3.11980
H         -4.47550        3.13300       -0.35400
H         -3.31290        4.42840        0.08940
H         -2.69620        2.78090       -0.39500
H         -3.52700        4.06360        3.98780
H         -2.75410        4.97370        2.64920
H         -4.52890        4.80460        2.70470
H         -1.05270        4.23080        0.70790
H          0.19660        5.49580        0.33510
H         -1.13050        5.89280        1.44080
H          2.19210        6.02520        1.67120
H          2.30840        5.84810        3.44390
H          2.99710        4.56850        2.37050
H          0.38910        5.11250        4.87790
H         -0.79140        6.00020        3.86860
H         -1.13850        4.29290        4.34840
H          0.66560        1.81720        6.89530
H          0.88170        3.52480        6.41780
H         -0.47560        2.56570        5.71430
H          2.86710        4.14140        4.88010
H          3.77570        2.79670        5.62470
H          3.80040        2.97990        3.83540
H          3.39370        0.38170        5.31270
H          1.76690       -0.06380        5.92970
H          2.17250       -0.29340        4.15910
H          3.41870       -2.32630       -4.07420
H          1.69140       -1.97030       -3.72680
H          2.42890       -1.40530       -5.23370
H          5.52110        0.11140       -3.57030
H          5.05750       -1.27540       -2.53980
H          5.05720        0.38520       -1.85230
H          3.70700        2.06430       -4.58180
H          3.70700        0.61190       -5.59920
H          2.13750        1.35950       -5.15440
H          3.48360        4.27980        0.14000
H          1.78400        3.65610        0.19390
H          2.19100        5.16580       -0.75140
H          3.20550        4.40810       -3.90140
H          1.68160        4.90500       -3.11770
H          1.76000        3.36760       -4.06900
H          5.03700        4.09710       -2.04750
H          5.13570        2.62180       -1.05350
H          5.04360        2.51110       -2.85710
H         -1.60990        4.78670       -1.40770
H          0.04490        4.04350       -1.43620
H         -0.53890        5.12290       -2.77510
H         -3.56060        4.15860       -2.70200
H         -3.88710        2.40360       -2.52960
H         -3.60850        3.11770       -4.15230
H         -0.26790        3.92690       -4.80270
H         -1.59730        2.94020       -5.40500
H         -0.09110        2.12080       -4.84910
H         -1.01140       -0.79670       -6.02570
H          0.33190       -0.24080       -4.97150
H         -0.21940       -1.98050       -4.94220
H         -2.81670        1.15000       -5.25120
H         -3.97010        0.61380       -3.94680
H         -3.58570       -0.44720       -5.33000
H         -3.73170       -1.76870       -2.94640
H         -2.58510       -2.80740       -3.84430
H         -2.22890       -2.28100       -2.13350
H          3.71580        2.32520        1.49680
H          4.38350        1.12320        0.35080
H          6.85570        1.06370        3.30860
H          5.92760        2.46360        2.64560
H          6.62650        1.21730        1.52440
