60
mol65-C-0
C          0.66770       -1.79420       -5.64580
S          0.16580       -0.05320       -5.45350
C         -0.57420       -0.25520       -3.79800
Ge        -1.27340        1.44840       -3.17230
Ge         0.49490        3.02560       -2.89960
C          1.96850        2.18620       -2.06190
C          2.90310        1.64890       -1.52420
C          0.98470        3.69250       -4.60070
C          1.28740        4.11740       -5.68650
Ge        -0.30140        4.81710       -1.53420
C          0.17510        4.50010        0.26890
C          0.47160        4.29320        1.41810
C          0.42790        6.45530       -2.13590
C          0.88820        7.49880       -2.52390
Ge        -2.31350        1.11100       -1.05180
C         -0.96910        0.85120        0.25350
C         -0.10870        0.69240        1.08150
C         -3.45100       -0.39760       -1.14300
C         -4.17790       -1.35620       -1.20680
Ge        -3.59530        3.04950       -0.50430
C         -3.50090        3.36510        1.35860
C         -3.43480        3.56730        2.54450
C         -5.38930        2.79520       -1.04760
C         -6.52920        2.63370       -1.40250
Ge        -2.68110        4.89870       -1.70180
Ge        -3.28620        4.65640       -3.99500
C         -5.12020        5.06640       -4.21130
C         -6.28960        5.32350       -4.34420
C         -2.21680        5.82210       -5.03250
C         -1.52820        6.56110       -5.68900
Ge        -2.88120        2.39870       -4.66430
C         -2.22120        2.41510       -6.43740
C         -1.79670        2.42990       -7.56480
C         -4.48420        1.40070       -4.55590
C         -5.50450        0.76490       -4.47830
C         -3.36360        6.58430       -1.01950
S         -2.76880        6.83590        0.68230
C         -3.60780        8.43680        0.89200
H          1.07170       -1.94390       -6.66780
H         -0.20320       -2.46650       -5.50120
H          1.45680       -2.04240       -4.90610
H         -1.38590       -1.01180       -3.78300
H          0.21790       -0.58320       -3.09420
H          3.72340        1.17650       -1.05120
H          1.55060        4.49080       -6.64100
H          0.73040        4.10940        2.42740
H          1.29190        8.41540       -2.86550
H          0.64820        0.55550        1.80810
H         -4.81690       -2.19770       -1.26370
H         -3.37570        3.74570        3.58570
H         -7.52940        2.49170       -1.71700
H         -7.31710        5.54850       -4.46000
H         -0.92120        7.20900       -6.26450
H         -1.42220        2.44200       -8.55430
H         -6.40060        0.20660       -4.40770
H         -4.47280        6.55370       -1.03750
H         -3.00090        7.40460       -1.67310
H         -3.39260        8.82770        1.90750
H         -4.70490        8.31000        0.78090
H         -3.23540        9.16410        0.14070
