84
mol64-A-2
C         -6.23640        1.01860        2.65310
S         -4.94830        1.44880        1.44240
C         -3.76110        0.21170        2.04920
Ge        -2.12190        0.28880        1.00460
Ge        -0.39300       -1.04610        1.97310
C         -0.61240       -2.89190        1.48010
C         -1.59730       -3.62680        1.99190
C         -0.45700       -0.86330        3.88960
C          0.25520       -1.65260        4.69240
Ge         1.68310       -0.25860        1.07750
C          2.94180       -1.70010        0.88140
C          3.34770       -2.41340        1.92980
C          2.39680        1.15290        2.17370
C          2.68630        0.95440        3.45800
Ge        -1.37510        2.55910        0.95420
C         -2.88360        3.70090        0.60830
C         -2.71620        4.99340        0.33340
C         -0.58190        2.96410        2.66020
C         -0.17810        4.19630        2.96330
Ge         0.22220        2.78710       -0.81270
C          1.52190        4.13500       -0.36690
C          2.48500        4.47380       -1.22210
C         -0.72930        3.27240       -2.41280
C         -0.12560        3.28450       -3.59950
Ge         1.25820        0.65250       -1.09220
Ge        -0.29190       -0.75700       -2.23410
C          0.29030       -2.57970       -2.04540
C         -0.42510       -3.58640       -2.54380
C         -0.34770       -0.26160       -4.09050
C         -1.27090       -0.76840       -4.90590
Ge        -2.44710       -0.45020       -1.24510
C         -3.40330        0.90750       -2.21530
C         -4.57780        1.35840       -1.77850
C         -3.37760       -2.13490       -1.26060
C         -4.50480       -2.30180       -1.95050
C          2.90280        0.76670       -2.12180
S          4.22480        1.47410       -1.08930
C          5.48730        1.39060       -2.39660
H         -7.12080        1.66690        2.48600
H         -6.53930       -0.04170        2.52730
H         -5.86060        1.18260        3.68460
H         -4.19190       -0.80690        1.95920
H         -3.51540        0.41660        3.11120
H          0.08920       -3.33870        0.78460
H         -1.70510       -4.66700        1.70340
H         -2.29020       -3.20360        2.71040
H         -1.10480       -0.11090        4.32420
H          0.89930       -2.42650        4.28880
H          0.89930       -2.42650        4.28880
H          3.32390       -1.92980       -0.10780
H          2.98180       -2.19810        2.92610
H          4.05740       -3.22250        1.79340
H          2.55500        2.13060        1.73090
H          2.53230       -0.01260        3.92190
H          3.08040        1.76860        4.05700
H         -3.88200        3.27720        0.62690
H         -3.57770        5.62230        0.13510
H         -1.72380        5.42980        0.29070
H         -0.46400        2.16680        3.38540
H         -0.29420        5.01140        2.25810
H          0.27000        4.39730        3.93070
H          1.46520        4.62690        0.59660
H          2.56610        3.99380       -2.19080
H          3.20830        5.23560       -0.95090
H         -1.77930        3.53490       -2.33950
H         -0.68380        3.55600       -4.48920
H          0.91930        3.01280       -3.69680
H          1.21770       -2.78340       -1.52110
H         -1.35570       -3.40220       -3.06970
H         -0.08120       -4.60820       -2.42340
H          0.38440        0.44260       -4.47130
H         -2.01690       -1.46500       -4.53760
H         -1.29040       -0.47800       -5.95100
H         -2.97070        1.31220       -3.12390
H         -5.10310        2.13010       -2.33100
H         -5.02120        0.96340       -0.87020
H         -2.96110       -2.96530       -0.70050
H         -5.00560       -3.26420       -1.94450
H         -4.93470       -1.49040       -2.52720
H          3.18860       -0.25560       -2.44570
H          2.72550        1.40240       -3.01320
H          5.18260        2.01700       -3.26080
H          5.62820        0.33960       -2.72470
H          6.44810        1.77410       -1.99660
