36
mol68-B-0
C         -3.32740       -4.97330       -0.50230
S         -3.11960       -3.17410       -0.67770
C         -1.72630       -3.07630        0.48860
Ge        -1.12200       -1.23530        0.64230
Ge        -0.69480       -0.28950       -1.51200
Ge         0.54690       -1.84260       -2.84220
Ge        -2.76490        0.20680       -2.60500
Ge         0.55570        1.72790       -1.21020
Ge        -0.20200        3.39690       -2.74790
Ge         2.88050        1.31310       -1.59120
Ge         0.91020       -1.21350        1.90280
Ge         0.64750       -2.55410        3.86690
Ge         2.68140       -2.11620        0.57240
Ge         1.41690        1.04330        2.51550
Ge         0.71240        1.43950        4.76780
Ge         3.76980        1.44000        2.34370
Ge         0.24310        2.50410        1.03010
Ge        -2.09040        2.41800        1.55730
Ge        -2.53640        3.56310        3.61090
Ge        -3.33420        3.45950       -0.20050
Ge        -2.74140        0.12240        1.76670
Ge        -2.81880       -0.49390        4.07670
Ge        -4.91250       -0.18070        0.80680
C          0.92890        4.31890        1.14980
S          0.95380        4.85700        2.88790
C          1.62730        6.50630        2.51770
H         -3.56420       -5.22900        0.55160
H         -4.16500       -5.30540       -1.14920
H         -2.40070       -5.49690       -0.81710
H         -2.04030       -3.43300        1.49150
H         -0.88190       -3.69520        0.12020
H          0.27540        4.98680        0.55120
H          1.95830        4.33500        0.73530
H          0.93320        7.06140        1.85290
H          2.62010        6.41240        2.03050
H          1.74440        7.07020        3.46570
