180
mol69-A-2
C         -3.38440        5.27280       -1.80050
S         -2.55890        4.32370       -0.48600
C         -2.07480        2.95780       -1.57260
Ge        -1.09730        1.57730       -0.60540
Ge         1.35750        2.12740       -0.45260
Ge         1.40240        4.54570        0.04140
C          1.91120        5.66940       -1.46730
C         -0.37700        5.23110        0.30970
C          2.51770        5.23660        1.47320
Ge         3.00790        2.32360       -2.25290
C          2.56790        3.43740       -3.79400
C          4.65760        3.08050       -1.54960
C          3.50040        0.60650       -2.96160
Ge         2.27520        0.34940        1.03320
Ge         4.25810       -0.98320        0.42190
C          5.91570       -0.00060        0.16040
C          4.09180       -2.09240       -1.12790
C          4.68840       -2.32080        1.78000
Ge         3.45540        1.45520        2.88680
C          4.74230        0.37760        3.88150
C          2.28950        2.18870        4.22800
C          4.60580        2.88250        2.24740
Ge        -1.64340       -0.47740       -1.92910
Ge        -1.13540        0.02430       -4.26610
C         -2.52300        1.15490       -5.03650
C         -0.97450       -1.49430       -5.46950
C          0.46500        1.05550       -4.46270
Ge        -3.93260       -1.17670       -2.46270
C         -4.79710       -2.32130       -1.15210
C         -3.95730       -2.25780       -4.08400
C         -5.12200        0.30490       -2.89780
Ge        -0.44770       -2.30630       -0.81050
Ge         0.93540       -3.49870       -2.44880
C         -0.15210       -4.70320       -3.52810
C          1.81750       -2.36850       -3.75830
C          2.24970       -4.70500       -1.65930
Ge        -1.68010       -4.33560       -0.24190
C         -2.70510       -4.13840        1.36110
C         -0.44260       -5.78630        0.15670
C         -2.87930       -5.03960       -1.60120
Ge         0.42380       -1.33130        1.33520
Ge        -1.34850       -0.41860        2.88060
Ge        -0.25690       -0.37770        5.08670
C         -0.90240       -1.75180        6.30580
C          1.58730       -0.93340        4.97680
C         -0.36620        1.22700        6.17480
Ge        -3.35360       -1.55980        3.76080
C         -4.13970       -0.60620        5.27150
C         -4.76580       -1.68200        2.46180
C         -3.13420       -3.36940        4.46650
Ge        -2.13300        1.62450        1.68270
Ge        -4.52990        2.01320        1.34890
C         -4.89030        3.62470        0.30820
C         -5.50500        0.71880        0.32900
C         -5.46790        2.21730        3.03600
Ge        -1.93690        3.56840        3.17750
C         -2.69450        3.18000        4.91970
C         -0.13380        4.19340        3.41760
C         -2.95440        5.16750        2.70700
C          1.35720       -2.84480        2.12660
S          0.25400       -3.89190        3.10340
C          1.55460       -5.07180        3.57970
H         -3.77850        6.21610       -1.37090
H         -2.66250        5.51890       -2.60670
H         -4.22950        4.68820       -2.22010
H         -2.97160        2.52290       -2.03560
H         -1.42520        3.33960       -2.37760
H          1.78890        6.73130       -1.17110
H          1.24340        5.47580       -2.32700
H          2.96640        5.51690       -1.74850
H         -0.80260        5.57320       -0.65370
H         -0.98620        4.41450        0.71110
H         -0.35030        6.09240        1.00600
H          2.14930        6.24200        1.76160
H          2.47340        4.58120        2.35420
H          3.56110        5.34170        1.11490
H          1.50090        3.70720       -3.79290
H          2.79760        2.88490       -4.72740
H          3.18300        4.35880       -3.78240
H          4.47270        4.05310       -1.06020
H          5.08760        2.39700       -0.80330
H          5.38210        3.21660       -2.37810
H          2.87850       -0.13370       -2.43930
H          3.31960        0.56360       -4.05230
H          4.57730        0.43360       -2.77960
H          6.77230       -0.67140        0.37410
H          5.96570        0.86210        0.84120
H          5.99780        0.33110       -0.89160
H          4.67420       -1.68860       -1.97580
H          3.02030       -2.11870       -1.34170
H          4.47790       -3.10600       -0.90400
H          4.34120       -2.01190        2.77660
H          5.78590       -2.47420        1.81240
H          4.20950       -3.28670        1.52330
H          4.25230       -0.46240        4.40500
H          5.53190        0.00410        3.20070
H          5.22320        1.02230        4.64520
H          2.55030        1.77880        5.22290
H          1.26490        1.89510        3.95040
H          2.40590        3.28760        4.27050
H          4.53930        3.75230        2.93030
H          4.29860        3.15830        1.22630
H          5.66260        2.55410        2.24220
H         -2.98270        1.78070       -4.25010
H         -3.29960        0.53030       -5.51640
H         -2.07870        1.81260       -5.81080
H         -1.89580       -1.59990       -6.07550
H         -0.11850       -1.33500       -6.15600
H         -0.80940       -2.41190       -4.88870
H          0.24310        2.00130       -4.99480
H          1.21980        0.48900       -5.04130
H          0.80490        1.25840       -3.44070
H         -4.07150       -2.53410       -0.35660
H         -5.70490       -1.84200       -0.73810
H         -5.11750       -3.26780       -1.62860
H         -4.84400       -2.92330       -4.07160
H         -3.04270       -2.87260       -4.14720
H         -4.02730       -1.60600       -4.97460
H         -4.79170        1.22810       -2.39060
H         -5.13190        0.47660       -3.99120
H         -6.15330        0.05020       -2.57990
H          0.33590       -4.86210       -4.51100
H         -1.15690       -4.27590       -3.68590
H         -0.24400       -5.68390       -3.02450
H          2.91610       -2.39400       -3.63040
H          1.43710       -1.34530       -3.63680
H          1.59130       -2.72810       -4.78130
H          1.86470       -5.74300       -1.66390
H          2.47310       -4.40980       -0.61880
H          3.17780       -4.68170       -2.26560
H         -2.40950       -4.91610        2.09220
H         -3.78690       -4.23880        1.14860
H         -2.45810       -3.13870        1.73660
H          0.49880       -5.37910        0.56930
H         -0.89950       -6.47110        0.89950
H         -0.22860       -6.36330       -0.76280
H         -2.42240       -5.92110       -2.09210
H         -3.08460       -4.26490       -2.35430
H         -3.83010       -5.35750       -1.12780
H         -0.78510       -2.74990        5.84250
H         -1.95310       -1.56910        6.59150
H         -0.28650       -1.72400        7.22780
H          2.16950       -0.47400        5.80010
H          1.97750       -0.62730        3.99950
H          1.65390       -2.03530        5.07140
H          0.45550        1.21600        6.91930
H         -1.33140        1.24200        6.71940
H         -0.26960        2.12580        5.55180
H         -5.05330       -0.06990        4.95760
H         -3.40920        0.09580        5.70810
H         -4.43730       -1.33370        6.05320
H         -5.14710       -2.71950        2.39290
H         -4.33830       -1.37030        1.50010
H         -5.59580       -1.01950        2.77220
H         -3.92300       -4.02920        4.05280
H         -2.15110       -3.77990        4.20530
H         -3.23600       -3.36660        5.56960
H         -5.86440        4.05180        0.62200
H         -4.10330        4.37970        0.44380
H         -4.94610        3.36920       -0.76900
H         -4.73830        0.10820       -0.15310
H         -6.13250        1.23360       -0.42390
H         -6.18040        0.12070        0.96490
H         -6.42460        1.65760        3.00450
H         -4.83680        1.82060        3.84490
H         -5.67970        3.28810        3.22570
H         -2.07880        3.64720        5.71440
H         -3.72010        3.59450        4.98640
H         -2.73590        2.08830        5.04780
H          0.17770        4.06460        4.47040
H          0.49810        3.61290        2.72580
H         -0.07220        5.27240        3.17800
H         -4.03880        4.95000        2.73620
H         -2.74230        5.95220        3.46150
H         -2.67450        5.56300        1.71550
H          1.80620       -3.43720        1.31080
H          2.16090       -2.47550        2.77550
H          2.34390       -4.55420        4.16360
H          1.10640       -5.86800        4.20830
H          2.00040       -5.53590        2.67540
