180
mol67-D-1
C          6.27120       -1.19500        0.77390
S          4.76440       -1.14180       -0.24460
C          3.70720       -0.53140        1.08990
Ge         1.85860       -0.27420        0.52660
Ge         0.54160       -2.43540        0.61220
Si        -0.00410       -3.78690        2.53110
C         -0.60760       -5.50820        2.07070
C         -1.36840       -3.02830        3.51420
C          1.38420       -4.12120        3.75590
Si         2.06010       -4.10150       -0.23070
C          2.76300       -5.28630        1.03830
C          1.44000       -5.24140       -1.56880
C          3.62820       -3.32450       -0.82380
Ge        -1.62220       -1.78510       -0.47840
Si        -2.06720       -3.27600       -2.30470
C         -3.80940       -3.33350       -3.00320
C         -1.00220       -2.93940       -3.77790
C         -1.82340       -5.04350       -1.77130
Si        -3.71830       -2.30880        0.54890
C         -3.98010       -1.53100        2.19250
C         -3.94140       -4.14740        0.76660
C         -5.22880       -1.69120       -0.38720
Ge         2.16450        0.48570       -1.85500
Si         4.12770        1.85280       -1.85660
C          4.54440        2.46260       -3.56890
C          5.67390        1.00910       -1.19550
C          4.03510        3.32570       -0.76250
Si         3.06750       -0.93200       -3.56690
C          2.96920       -0.08860       -5.22410
C          2.20660       -2.56490       -3.67040
C          4.88920       -1.37990       -3.48300
Ge        -0.04150        1.40410       -2.61970
Si         0.36960        3.60890       -3.50070
C          1.24810        3.58410       -5.16400
C          1.46130        4.58270       -2.37660
C         -1.13640        4.69140       -3.81530
Si        -1.19160        0.72970       -4.62350
C         -1.92580        2.11280       -5.65150
C         -2.73550       -0.20020       -4.21630
C         -0.23560       -0.26230       -5.87900
Ge        -1.59120        0.71990       -0.73740
Ge        -1.27480        1.97180        1.42320
Si        -2.70150        1.76380        3.33190
C         -2.22510        0.35100        4.45040
C         -4.52270        1.60330        2.91480
C         -2.63040        3.27750        4.43600
Si        -1.99470        4.20390        1.02610
C         -3.86540        4.32030        0.98940
C         -1.44840        4.78830       -0.62850
C         -1.43180        5.48720        2.26370
Ge         1.06050        1.53260        2.08670
Si         2.19320        3.60800        2.44950
C          1.76430        4.36670        4.10950
C          4.06230        3.46410        2.49630
C          1.73270        4.91920        1.20730
Si         1.54610        0.78790        4.29290
C          0.64370        1.66080        5.67820
C          3.37080        0.96400        4.68550
C          1.19040       -1.00580        4.47650
C         -3.45700        1.08630       -1.16760
S         -3.66850        2.61810       -2.10580
C         -5.47830        2.47030       -2.22290
H          6.12690       -1.87990        1.63540
H          7.11190       -1.56890        0.15480
H          6.51960       -0.17750        1.14100
H          4.11210        0.42030        1.45940
H          3.71320       -1.25440        1.92050
H         -1.69720       -5.60330        2.22530
H         -0.34810       -5.74930        1.02710
H         -0.12980       -6.26200        2.72780
H         -1.09680       -2.93520        4.58320
H         -2.26960       -3.66520        3.43840
H         -1.53950       -2.03610        3.07940
H          1.03640       -3.92590        4.79000
H          2.25240       -3.48720        3.54790
H          1.70560       -5.17980        3.70930
H          3.51780       -5.92750        0.53860
H          3.27620       -4.72460        1.84130
H          1.98410       -5.95050        1.45030
H          2.30630       -5.68850       -2.09720
H          0.85050       -6.06450       -1.11930
H          0.83240       -4.68770       -2.29360
H          4.07310       -3.93240       -1.63640
H          3.38050       -2.31760       -1.17180
H          4.36280       -3.25920        0.00200
H         -4.51600       -3.73120       -2.25100
H         -4.14920       -2.34780       -3.36430
H         -3.81520       -4.03010       -3.86640
H         -0.31510       -3.78360       -3.96600
H         -0.46180       -2.00210       -3.56890
H         -1.62700       -2.81700       -4.68360
H         -1.34750       -5.62930       -2.58330
H         -1.19780       -5.04430       -0.86830
H         -2.79860       -5.51170       -1.53260
H         -4.99480       -1.09260        2.24900
H         -3.90730       -2.26120        3.01550
H         -3.21310       -0.75210        2.25250
H         -4.42810       -4.36020        1.73990
H         -2.95380       -4.62810        0.73450
H         -4.57300       -4.55640       -0.04600
H         -6.07970       -2.37640       -0.19590
H         -5.05950       -1.62740       -1.46900
H         -5.51390       -0.68190       -0.03020
H          5.33890        1.83480       -4.01720
H          3.64170        2.40410       -4.19270
H          4.89960        3.51200       -3.52440
H          5.66540       -0.07590       -1.35580
H          6.56480        1.43980       -1.69610
H          5.77160        1.18840       -0.10650
H          3.92950        4.26290       -1.33350
H          3.17620        3.13070       -0.11230
H          4.96590        3.41990       -0.17110
H          2.21790        0.71010       -5.15660
H          3.94750        0.36010       -5.48650
H          2.70050       -0.81930       -6.01350
H          2.94220       -3.39070       -3.62030
H          1.52710       -2.61870       -2.80460
H          1.66810       -2.66390       -4.62970
H          5.51690       -0.48040       -3.62460
H          5.11460       -2.07750       -4.31540
H          5.15360       -1.88650       -2.53900
H          1.18350        2.58640       -5.62750
H          2.30430        3.89050       -5.06170
H          0.77400        4.31420       -5.85000
H          1.01980        5.56820       -2.13370
H          2.43630        4.75050       -2.87110
H          1.57050        3.98200       -1.46540
H         -1.31130        4.81880       -4.90130
H         -0.97830        5.70020       -3.38460
H         -2.03540        4.25240       -3.36990
H         -2.62220        2.71510       -5.03860
H         -2.50870        1.66140       -6.48050
H         -1.14190        2.74460       -6.10270
H         -2.56610       -0.70970       -3.26350
H         -2.97080       -0.92290       -5.02250
H         -3.59010        0.49650       -4.11520
H          0.40100       -1.00170       -5.37980
H          0.37700        0.41430       -6.50660
H         -0.94780       -0.79450       -6.54190
H         -3.02690       -0.40910        4.50740
H         -1.30480       -0.08570        4.04410
H         -2.04490        0.71220        5.48120
H         -4.65730        1.20710        1.89490
H         -5.02530        2.58660        2.98350
H         -5.00880        0.92610        3.64590
H         -3.35920        4.03540        4.09400
H         -1.61850        3.71580        4.43240
H         -2.89970        2.99430        5.47370
H         -4.30240        3.37370        0.62480
H         -4.25330        4.54150        2.00070
H         -4.17760        5.14640        0.31880
H         -1.01340        3.90900       -1.12080
H         -0.70710        5.60430       -0.53440
H         -2.31670        5.16840       -1.20100
H         -1.12270        6.41110        1.73470
H         -2.25630        5.74920        2.95460
H         -0.58330        5.09760        2.84060
H          1.90500        5.46570        4.06390
H          2.43560        3.97360        4.89500
H          0.71780        4.14760        4.37980
H          4.42070        3.39610        3.54070
H          4.51200        4.37190        2.04570
H          4.40000        2.57020        1.94680
H          1.35290        5.82500        1.71780
H          2.60550        5.22860        0.60200
H          0.94790        4.49660        0.56840
H         -0.22730        2.19280        5.27480
H          0.30570        0.92190        6.43230
H          1.31320        2.38300        6.18420
H          3.56850        1.95080        5.14340
H          3.97400        0.85540        3.76670
H          3.67560        0.18560        5.41400
H          0.34680       -1.17220        5.17310
H          0.94980       -1.36160        3.46650
H          2.08130       -1.52940        4.87460
H         -4.01780        1.15630       -0.22240
H         -3.86820        0.25090       -1.75030
H         -5.87640        3.34480       -2.77650
H         -5.75080        1.54380       -2.77010
H         -5.92740        2.45240       -1.20800
