180
mol61-B-2
C         -1.04150       -5.48310        2.90740
S          0.00790       -4.01860        2.65070
C         -1.17220       -3.17050        1.57610
Ge        -0.60460       -1.41050        0.90850
Ge        -2.70420       -0.03880        0.08070
C         -3.92590       -1.45020       -0.86630
C         -4.67790       -0.88110       -2.09370
C         -5.01780       -2.12440        0.01420
C         -3.04370       -2.60360       -1.30610
C         -4.17580        0.83710        1.24760
C         -3.61870        2.05090        1.98420
C         -5.30040        1.37220        0.33030
C         -4.83730       -0.09340        2.30360
Ge        -1.61240        1.94790       -1.23240
C         -2.28720        1.89090       -3.21590
C         -2.31230        0.42920       -3.68960
C         -3.73830        2.43810       -3.37890
C         -1.42200        2.72780       -4.20500
C         -2.06900        3.95870       -0.84630
C         -1.29260        4.41580        0.38520
C         -3.56490        4.30970       -0.61340
C         -1.62220        4.91180       -1.98290
Ge         0.91920       -2.36550       -1.01670
C          0.15080       -3.25410       -2.74200
C         -0.53560       -2.18860       -3.61340
C         -0.86740       -4.41240       -2.49650
C          1.30640       -3.85640       -3.58240
C          1.93470       -4.02880       -0.24220
C          3.29140       -4.35520       -0.91750
C          1.13450       -5.35500       -0.33160
C          2.20220       -3.81080        1.24710
Ge         2.23100       -0.25990       -1.73420
C          2.34130        0.23060       -3.76280
C          1.05030        0.93240       -4.18350
C          2.54330       -0.95020       -4.74720
C          3.50550        1.20960       -4.07090
C          4.25400       -0.59730       -1.38370
C          4.44380       -1.23170       -0.00000
C          4.83940       -1.61010       -2.40220
C          5.12320        0.69150       -1.47060
Ge         0.91440        1.66750       -0.49690
Ge         1.35890        1.90030        2.10400
C          0.44920        3.34830        3.30540
C         -1.03790        3.01710        3.46810
C          0.57560        4.81320        2.78170
C          1.05830        3.33570        4.73060
C          3.34610        2.52550        2.34190
C          4.21380        1.91020        1.24490
C          3.52020        4.05880        2.19960
C          4.01070        2.17140        3.69960
Ge         0.61330       -0.40200        2.99770
C          2.26280       -1.32410        3.88660
C          3.49250       -1.17010        2.98270
C          2.62220       -0.63740        5.22890
C          2.06890       -2.83920        4.20070
C         -0.74480       -0.53070        4.57850
C         -2.17460       -0.28310        4.07770
C         -0.74160       -1.94220        5.21320
C         -0.50710        0.44770        5.75870
C          1.86400        3.33030       -0.96110
S          1.81880        3.81810       -2.70330
C          2.81170        5.32490       -2.46710
H         -1.24480       -5.98170        1.93680
H         -1.99800       -5.18800        3.38700
H         -0.51110       -6.19490        3.57220
H         -2.10580       -3.04590        2.13050
H         -1.37980       -3.82550        0.72220
H         -4.32870       -1.29970       -3.05750
H         -5.77160       -1.08140       -2.08290
H         -4.57420        0.19560       -2.11070
H         -4.62800       -2.49620        0.96590
H         -5.90540       -1.50000        0.18740
H         -5.43130       -3.01700       -0.50830
H         -3.43110       -3.11250       -2.21340
H         -2.02920       -2.22770       -1.45990
H         -2.99490       -3.39160       -0.53340
H         -3.31790        1.82340        3.00420
H         -2.76120        2.43680        1.42560
H         -4.37510        2.84760        2.14800
H         -4.88080        2.00270       -0.45890
H         -6.04160        1.97220        0.90230
H         -5.87920        0.58230       -0.16620
H         -4.23020       -0.98520        2.47660
H         -5.86120       -0.41340        2.03040
H         -4.98310        0.40090        3.28830
H         -3.21890        0.16270       -4.26790
H         -1.51350        0.18080       -4.39440
H         -2.22960       -0.23220       -2.81870
H         -4.21730        2.07860       -4.31500
H         -3.79260        3.53370       -3.48170
H         -4.39040        2.17720       -2.54630
H         -1.91190        3.64420       -4.58940
H         -0.50200        3.05680       -3.72120
H         -1.17190        2.18500       -5.13960
H         -0.49520        5.14790        0.14450
H         -0.81040        3.54810        0.85030
H         -1.93980        4.93770        1.12090
H         -3.97150        3.89970        0.30750
H         -3.68330        5.40960       -0.49180
H         -4.23430        4.04450       -1.43560
H         -0.58590        4.72600       -2.27820
H         -2.28510        4.89230       -2.85590
H         -1.66090        5.97350       -1.64940
H         -0.38140       -2.32410       -4.70310
H         -0.16510       -1.20450       -3.31050
H         -1.63400       -2.20430       -3.54570
H         -0.47440       -5.42260       -2.72200
H         -1.75080       -4.35810       -3.16530
H         -1.21590       -4.43100       -1.45790
H          1.57330       -4.88440       -3.28440
H          2.21170       -3.24300       -3.49200
H          1.04700       -3.95830       -4.65770
H          4.04750       -3.60470       -0.72220
H          3.23910       -4.51870       -1.99780
H          3.71860       -5.29220       -0.49540
H          1.62560       -6.14940        0.27460
H          0.11600       -5.26930        0.07050
H          1.12700       -5.77740       -1.34550
H          3.26800       -3.97150        1.51360
H          1.64760       -4.51930        1.89690
H          1.88930       -2.79500        1.52100
H          1.21990        1.94240       -4.60410
H          0.52410        0.39950       -5.00110
H          0.38270        1.01840       -3.31480
H          3.39850       -1.59550       -4.53030
H          1.65250       -1.57160       -4.83690
H          2.71360       -0.56350       -5.77680
H          4.46970        0.69570       -4.19960
H          3.60400        1.98990       -3.30700
H          3.36270        1.72270       -5.04760
H          5.22950       -2.01340        0.04380
H          3.48540       -1.64960        0.32490
H          4.82770       -0.54310        0.74970
H          5.12630       -1.15150       -3.36060
H          4.12720       -2.42270       -2.60280
H          5.79140       -2.06120       -2.04780
H          5.91350        0.72810       -0.69110
H          5.69550        0.78500       -2.41290
H          4.50090        1.59400       -1.38430
H         -1.44950        3.22280        4.47690
H         -1.18270        1.96350        3.21240
H         -1.69110        3.64100        2.85410
H         -0.37930        5.37610        2.82070
H          1.24470        5.45710        3.38590
H          0.95080        4.83510        1.75310
H          1.29900        2.31120        5.04320
H          1.96750        3.95500        4.81590
H          0.37980        3.78280        5.48850
H          4.66980        2.66210        0.56710
H          5.08810        1.36230        1.65380
H          3.58690        1.24310        0.63900
H          4.59680        4.32870        2.11330
H          3.19200        4.60210        3.09640
H          3.03560        4.45200        1.29140
H          5.02550        2.62400        3.75970
H          4.18140        1.10600        3.81920
H          3.48250        2.52380        4.58690
H          4.44370       -1.00280        3.52840
H          3.31120       -0.34330        2.28990
H          3.74090       -2.07360        2.42490
H          2.02260       -1.01080        6.07620
H          2.50040        0.45210        5.15980
H          3.66570       -0.85010        5.54640
H          1.92940       -3.06610        5.27560
H          2.95480       -3.45350        3.93570
H          1.19960       -3.24510        3.67550
H         -2.16550       -0.13410        2.98970
H         -2.87490       -1.10950        4.30900
H         -2.64690        0.58680        4.57590
H          0.11110       -2.08900        5.89200
H         -1.62770       -2.09540        5.86830
H         -0.76590       -2.73370        4.44920
H          0.49610        0.42720        6.18800
H         -0.73230        1.47970        5.49640
H         -1.20040        0.21160        6.59630
H          2.92130        3.20910       -0.69370
H          1.44410        4.15110       -0.36200
H          3.81350        5.06340       -2.06710
H          2.29580        6.01600       -1.76840
H          2.93690        5.83140       -3.44580
