180
mol60-E-1
C          4.64790        1.03160       -3.92750
S          3.73700        1.42460       -2.40210
C          2.51530        0.09680       -2.61160
Ge         1.19160        0.03720       -1.16210
Ge        -0.39480        1.87930       -1.24800
C         -1.58840        1.52910       -2.78010
C         -2.11100        2.77030       -3.54060
C         -2.65800        2.34950       -4.91130
C         -3.19170        3.52770       -2.76880
C          0.40520        3.67730       -1.36240
C          1.69710        3.78890       -2.19110
C          1.42500        3.79060       -3.69820
C          2.44510        5.07710       -1.81940
Ge        -1.64670        1.81440        0.83370
C         -0.93930        3.12980        2.11830
C         -1.70790        4.46570        2.20550
C         -1.30580        5.21760        3.48120
C         -1.47120        5.35980        0.98700
C         -3.51990        2.19260        0.35320
C         -4.57480        1.56660        1.27120
C         -4.64860        2.26410        2.63440
C         -5.95240        1.59470        0.59710
Ge         2.46130        0.16060        0.90410
C          2.90780        2.05400        1.24290
C          4.42630        2.37560        1.28580
C          4.88260        3.14370        0.03620
C          4.79860        3.18460        2.53530
C          3.98240       -1.09080        1.10690
C          4.75750       -1.48080       -0.16700
C          5.65380       -2.69430        0.11650
C          5.61300       -0.33730       -0.71040
Ge         0.96710       -0.57420        2.65000
C          1.06590        0.42180        4.34810
C          2.47680        0.92020        4.74790
C          3.08970        0.08030        5.87640
C          2.41310        2.38870        5.20380
C          1.09140       -2.52000        2.86470
C          2.22930       -3.02440        3.77340
C          2.78410       -4.35770        3.24880
C          1.73900       -3.21940        5.21630
Ge        -1.30630       -0.33670        1.91770
Ge        -1.77080       -2.15250        0.38280
C         -1.78050       -3.93580        1.23670
C         -2.48200       -4.03420        2.60570
C         -4.00250       -4.16670        2.46950
C         -1.94100       -5.23390        3.39840
C         -3.51290       -1.66990       -0.38860
C         -4.03500       -2.61400       -1.49460
C         -4.88240       -1.81980       -2.50080
C         -4.87370       -3.76610       -0.93010
Ge        -0.01970       -2.06780       -1.32930
C          1.49600       -3.33030       -1.14750
C          1.24460       -4.79110       -0.70880
C          2.53520       -5.60660       -0.86260
C          0.10730       -5.48680       -1.45540
C         -0.85270       -1.93420       -3.12020
C         -1.03660       -3.23300       -3.93280
C         -2.13630       -3.04270       -4.98800
C          0.25920       -3.64340       -4.64850
C         -2.21800       -0.39630        3.65610
S         -3.94090       -0.97130        3.55040
C         -4.25410       -0.82960        5.33650
H          5.47830        1.75650       -4.04920
H          3.97320        1.10610       -4.80560
H          5.07210        0.00770       -3.86410
H          1.99140        0.28010       -3.56650
H          3.03540       -0.87700       -2.66310
H         -2.43400        0.89330       -2.45040
H         -0.98690        0.92870       -3.48630
H         -1.28210        3.47510       -3.72440
H         -1.85590        1.87390       -5.51570
H         -3.02470        3.23660       -5.47080
H         -3.49430        1.62670       -4.79350
H         -3.50340        4.42970       -3.33730
H         -4.08640        2.88960       -2.61030
H         -2.79230        3.87210       -1.79830
H         -0.34800        4.39910       -1.73760
H          0.63280        3.95770       -0.31780
H          2.35000        2.93230       -1.94580
H          0.85710        2.89270       -3.99320
H          0.84230        4.68950       -3.99350
H          2.38460        3.78730       -4.25800
H          1.85620        5.97200       -2.11580
H          2.61760        5.12790       -0.72490
H          3.43130        5.10870       -2.33000
H         -1.00880        2.63550        3.10590
H          0.13580        3.30730        1.91210
H         -2.79230        4.26330        2.27490
H         -1.54680        4.60850        4.37870
H         -0.21590        5.43690        3.47940
H         -1.86540        6.17430        3.55860
H         -0.40120        5.64600        0.90860
H         -1.78840        4.84010        0.06540
H         -2.07690        6.28700        1.07210
H         -3.68060        3.28700        0.28130
H         -3.65520        1.76230       -0.65490
H         -4.30640        0.50980        1.40950
H         -3.66680        2.22770        3.14600
H         -4.96120        3.32340        2.51590
H         -5.38860        1.75180        3.28530
H         -6.71120        1.11770        1.25360
H         -5.92530        1.02780       -0.35860
H         -6.26410        2.64030        0.38600
H          2.41790        2.33020        2.19460
H          2.40360        2.66250        0.47070
H          5.00850        1.44040        1.33850
H          4.46240        2.69960       -0.88730
H          4.56370        4.20420        0.09180
H          5.99060        3.11870       -0.03940
H          4.16150        4.09110        2.62310
H          5.86370        3.49830        2.49140
H          4.67800        2.56200        3.44190
H          4.67330       -0.72020        1.89210
H          3.53350       -2.01580        1.50450
H          4.03860       -1.78670       -0.94470
H          5.04500       -3.55190        0.47080
H          6.40940       -2.45030        0.89430
H          6.17970       -3.01010       -0.80980
H          4.97270        0.51930       -0.96820
H          6.37350       -0.02130        0.03500
H          6.13400       -0.65620       -1.63840
H          0.38760        1.28480        4.21510
H          0.60460       -0.18240        5.15390
H          3.15640        0.85060        3.87580
H          2.41450        0.04760        6.75840
H          4.06370        0.51170        6.19200
H          3.29170       -0.94850        5.53530
H          3.42200        2.75530        5.48870
H          1.73960        2.49300        6.08180
H          2.02970        3.03710        4.38850
H          0.11720       -2.88100        3.24480
H          1.21190       -2.91620        1.83880
H          3.06020       -2.29100        3.76430
H          3.60730       -4.71570        3.90330
H          3.19230       -4.23670        2.22400
H          1.98480       -5.12960        3.21950
H          0.98580       -4.03510        5.26840
H          2.59270       -3.48090        5.87720
H          1.27010       -2.29660        5.60540
H         -2.18720       -4.69270        0.53940
H         -0.72400       -4.18590        1.39110
H         -2.24690       -3.13010        3.19290
H         -4.42050       -3.31790        1.89950
H         -4.47540       -4.16350        3.47470
H         -4.27110       -5.11560        1.95820
H         -2.43560       -5.29370        4.39150
H         -2.12370       -6.18140        2.84720
H         -0.84890       -5.12780        3.57050
H         -3.36380       -0.65290       -0.80360
H         -4.26220       -1.57330        0.42080
H         -3.18040       -3.06190       -2.03360
H         -5.26480       -2.48810       -3.30140
H         -4.27230       -1.02590       -2.98200
H         -5.74700       -1.34300       -1.99050
H         -4.24380       -4.44370       -0.32950
H         -5.70890       -3.38250       -0.30580
H         -5.30060       -4.37250       -1.75740
H          2.14470       -2.88450       -0.37120
H          2.08890       -3.29620       -2.08130
H          1.01300       -4.80090        0.36960
H          2.84020       -5.66280       -1.93000
H          3.35630       -5.13920       -0.28030
H          2.38820       -6.63830       -0.47730
H         -0.04170       -6.50940       -1.04780
H         -0.84090       -4.93880       -1.31140
H          0.33900       -5.57660       -2.53540
H         -1.83100       -1.44160       -2.96240
H         -0.26620       -1.23310       -3.72830
H         -1.36870       -4.04760       -3.26660
H         -3.10600       -2.81450       -4.50400
H         -1.87900       -2.20950       -5.67760
H         -2.26790       -3.97270       -5.58130
H          1.07910       -3.80960       -3.93280
H          0.10400       -4.59240       -5.20460
H          0.57810       -2.85780       -5.36730
H         -1.65330       -1.08470        4.31750
H         -2.18420        0.61660        4.10470
H         -4.12220        0.22270        5.66380
H         -5.29710       -1.14310        5.54590
H         -3.56060       -1.48940        5.89850
