180
mol67-B-2
C         -4.23530        4.68530        0.60910
S         -3.70120        2.99260        1.00930
C         -2.09920        3.14340        0.18110
Ge        -1.03830        1.51330        0.30380
Ge        -2.78670       -0.30570        0.24930
Si        -4.47600        0.52020       -1.25210
C         -5.20040        2.16800       -0.70180
C         -5.95230       -0.59110       -1.54500
C         -3.84810        0.93600       -2.92560
Si        -4.39350       -0.70350        1.98660
C         -5.82440        0.49800        2.15910
C         -5.28570       -2.31920        1.72250
C         -3.62220       -0.74100        3.66360
Ge        -1.52280       -2.43920       -0.11070
Si        -2.61650       -3.42770       -1.98790
C         -1.82420       -4.93120       -2.78540
C         -2.84010       -2.19270       -3.34080
C         -4.34320       -3.97500       -1.51800
Si        -1.67980       -4.44060        1.22910
C         -1.76880       -6.04740        0.26930
C         -0.12400       -4.74420        2.18940
C         -3.09890       -4.59660        2.42870
Ge         0.22570        1.42850        2.48550
Si         1.97020        2.85620        3.27020
C          2.34690        2.49230        5.06670
C          1.70040        4.71230        3.19060
C          3.54200        2.53090        2.35960
Si        -1.37550        2.24350        4.09710
C         -1.08150        3.98870        4.71300
C         -1.61220        1.28210        5.67750
C         -3.05350        2.46460        3.34220
Ge         1.28890       -0.84030        2.46230
Si         3.62810       -1.22780        2.87270
C          4.29280       -0.66410        4.52820
C          4.10150       -3.04490        2.74390
C          4.74010       -0.46950        1.62530
Si         0.65330       -1.95570        4.48950
C          1.65850       -3.44450        5.03180
C         -1.08640       -2.57170        4.43820
C          0.82520       -0.82610        5.96270
Ge         0.89040       -1.74840        0.14150
Ge         1.80970       -0.33420       -1.72660
Si         1.94050       -1.72890       -3.65380
C          0.46860       -2.82410       -3.79310
C          3.40540       -2.89430       -3.56440
C          2.10790       -0.85030       -5.29590
Si         4.10500        0.30710       -1.93350
C          5.33350       -1.04420       -1.49960
C          4.55560        0.75060       -3.69870
C          4.52160        1.82480       -0.93340
Ge         0.38700        1.68120       -1.76390
Si         1.39110        3.84180       -1.74190
C          2.86950        4.07400       -2.86280
C          1.93760        4.31260       -0.04930
C          0.17330        5.17410       -2.24640
Si        -0.46900        2.01120       -3.97310
C          0.81810        2.74030       -5.12520
C         -0.99710        0.41820       -4.78600
C         -1.89040        3.23240       -4.08350
C          2.06610       -3.30110        0.07170
S          1.48550       -4.55910       -1.09250
C          2.86390       -5.70350       -0.77420
H         -4.29360        4.81680       -0.49140
H         -3.52510        5.42280        1.03760
H         -5.24010        4.85890        1.04530
H         -2.27150        3.38570       -0.87270
H         -1.52270        3.96580        0.63390
H         -4.65810        3.00530       -1.18390
H         -6.26360        2.22930       -1.01010
H         -5.14020        2.30500        0.38580
H         -6.26570       -1.08710       -0.61540
H         -6.79820        0.02150       -1.91740
H         -5.72250       -1.34080       -2.32260
H         -4.14390        0.17720       -3.67130
H         -4.26620        1.90550       -3.25990
H         -2.76120        0.99510       -2.80460
H         -5.47900        1.51090        2.43160
H         -6.42540        0.52520        1.23000
H         -6.48330        0.13840        2.97580
H         -5.41380       -2.84560        2.68910
H         -6.29840       -2.15040        1.31060
H         -4.70070       -2.92830        1.01930
H         -4.12500       -0.01790        4.33460
H         -2.56410       -0.46070        3.53300
H         -3.73380       -1.74420        4.11320
H         -0.78320       -5.05280       -2.45680
H         -2.39850       -5.84500       -2.53720
H         -1.83560       -4.82100       -3.88840
H         -3.91770       -2.06940       -3.55230
H         -2.35000       -2.52130       -4.27530
H         -2.38720       -1.25930       -2.97970
H         -4.32580       -4.68870       -0.67610
H         -4.93930       -3.10250       -1.21550
H         -4.82690       -4.45520       -2.39290
H         -1.70290       -6.88880        0.98930
H         -0.91280       -6.13120       -0.42460
H         -2.72550       -6.14990       -0.26890
H          0.56650       -5.38380        1.60610
H          0.35040       -3.77780        2.38840
H         -0.35780       -5.27120        3.13550
H         -3.25740       -3.65390        2.96910
H         -4.01640       -4.90250        1.88850
H         -2.86240       -5.38890        3.16760
H          3.14030        3.18100        5.42210
H          1.45090        2.61350        5.70000
H          2.70150        1.45700        5.16890
H          1.52220        5.11840        4.20540
H          0.85010        4.96250        2.54180
H          2.60800        5.20670        2.78950
H          4.32040        2.20570        3.07340
H          3.31210        1.74810        1.62400
H          3.91160        3.43990        1.85070
H         -0.18200        4.05240        5.34730
H         -1.01810        4.69270        3.86360
H         -1.94800        4.28980        5.33680
H         -0.79640        1.51960        6.38810
H         -2.56880        1.58870        6.14730
H         -1.65490        0.20380        5.47470
H         -3.83890        2.30390        4.10680
H         -3.16450        3.49520        2.95270
H         -3.15710        1.74850        2.52050
H          4.54450        0.41070        4.49730
H          3.57250       -0.86570        5.33390
H          5.22880       -1.21570        4.74920
H          3.25820       -3.71030        2.97060
H          4.45630       -3.27700        1.72010
H          4.92860       -3.26540        3.44830
H          4.08560       -0.23680        0.77860
H          5.24370        0.42960        2.02210
H          5.53140       -1.18710        1.33310
H          1.25380       -3.80250        6.00050
H          2.71680       -3.16320        5.19320
H          1.58050       -4.27700        4.31030
H         -1.45810       -2.38890        3.41660
H         -1.69710       -2.05590        5.20120
H         -1.11770       -3.65520        4.66370
H          1.74090       -1.06020        6.53760
H          0.87380        0.21080        5.60170
H         -0.03220       -0.96490        6.65080
H         -0.11610       -2.57110       -4.69740
H         -0.11270       -2.65670       -2.87750
H          0.78220       -3.88370       -3.86690
H          3.61500       -3.17270       -2.51690
H          4.29880       -2.41600       -4.00660
H          3.18880       -3.81240       -4.14720
H          1.78350        0.19200       -5.19240
H          1.48140       -1.35390       -6.05950
H          3.15800       -0.87510       -5.64530
H          4.86330       -1.81710       -0.86910
H          6.19590       -0.59880       -0.96370
H          5.72360       -1.52510       -2.41680
H          4.88590       -0.15100       -4.24750
H          3.69290        1.19510       -4.22040
H          5.39530        1.47480       -3.69940
H          5.00270        2.59160       -1.57130
H          5.22760        1.58770       -0.11640
H          3.58180        2.21990       -0.52630
H          3.64370        4.67730       -2.34720
H          2.57750        4.61030       -3.78620
H          3.29000        3.09640       -3.12730
H          1.58040        3.51190        0.61070
H          1.49420        5.28470        0.24260
H          3.03910        4.40840       -0.01250
H          0.45650        6.13710       -1.77550
H          0.19640        5.31410       -3.34290
H         -0.84900        4.90410       -1.92930
H          0.78870        3.84500       -5.08180
H          0.60070        2.43590       -6.16900
H          1.82720        2.39480       -4.84940
H         -2.08940        0.39460       -4.95460
H         -0.50970        0.30500       -5.77400
H         -0.69220       -0.40520       -4.12740
H         -1.52910        4.22020       -4.42770
H         -2.62960        2.87000       -4.82610
H         -2.37960        3.35800       -3.10330
H          3.07210       -2.95990       -0.22090
H          2.13320       -3.75040        1.06790
H          3.83080       -5.21560       -1.01640
H          2.85960       -6.01930        0.28970
H          2.74330       -6.60020       -1.41560
