180
mol69-D-1
C         -0.54870        3.25770        4.97170
S         -0.67480        1.71180        4.02060
C          0.32440        2.30830        2.63590
Ge         0.51440        0.95490        1.24970
Ge         1.01000        2.02290       -0.97850
Ge         2.54710        3.89260       -0.59220
C          3.09470        4.02190        1.25680
C          4.04430        3.97440       -1.82120
C          1.74590        5.65700       -0.75860
Ge        -0.58090        3.41050       -2.21790
C         -1.44830        4.93530       -1.35320
C          0.31060        4.22730       -3.74490
C         -1.99030        2.31830       -2.92090
Ge         1.54140        0.12720       -2.50970
Ge         0.31120       -0.04770       -4.63540
C          1.11210       -1.39830       -5.79320
C          0.20720        1.49590       -5.81860
C         -1.47850       -0.69690       -4.42600
Ge         3.71150        0.33160       -3.70870
C          4.25490       -1.33390       -4.56280
C          5.33870        1.10420       -2.96490
C          3.51860        1.54720       -5.22020
Ge        -1.65210       -0.23510        1.24460
Ge        -1.96270       -1.35320        3.32030
C         -3.78020       -1.99340        3.54910
C         -1.55870       -0.30870        4.90750
C         -0.76390       -2.82190        3.13680
Ge        -3.53300        1.31240        1.46380
C         -5.31850        0.57350        1.25470
C         -3.60630        2.09320        3.24110
C         -3.36740        2.83230        0.30030
Ge        -1.61100       -1.94460       -0.54820
Ge        -2.15900       -4.32230       -0.15990
C         -3.24910       -4.76430        1.39560
C         -3.11290       -5.22340       -1.60590
C         -0.56930       -5.40280       -0.19500
Ge        -3.71690       -1.63100       -1.79430
C         -4.25600        0.17430       -2.22030
C         -3.91050       -2.60870       -3.47100
C         -5.16740       -2.25850       -0.65140
Ge         0.82360       -1.93310       -1.24550
Ge         2.36470       -2.48580        0.66970
Ge         4.53180       -2.98440       -0.34610
C          5.90800       -3.81600        0.75990
C          4.41180       -4.18560       -1.87500
C          5.35200       -1.39840       -1.00230
Ge         2.33020       -4.63780        1.89880
C          0.85560       -5.44710        2.89830
C          3.75790       -4.58830        3.21510
C          2.80260       -6.08690        0.67560
Ge         2.34950       -0.50920        2.15850
Ge         2.34290       -0.92080        4.61730
C          4.09990       -1.39520        5.31870
C          1.34440       -2.34870        5.48260
C          1.94690        0.69590        5.63290
Ge         4.51800        0.61040        2.25670
C          4.53450        1.97410        3.65800
C          5.04120        1.52370        0.65150
C          5.98230       -0.59220        2.69060
C          1.14670       -3.41950       -2.45790
S         -0.29650       -3.76990       -3.49430
C          0.49010       -5.15070       -4.38020
H         -0.99850        4.09560        4.39940
H          0.51440        3.48480        5.19510
H         -1.09920        3.13910        5.92710
H         -0.14610        3.20710        2.20410
H          1.33100        2.57130        3.00490
H          2.39260        4.67270        1.81470
H          3.05650        3.01670        1.68720
H          4.11260        4.45540        1.32530
H          3.78060        3.42810       -2.74520
H          4.24630        5.03370       -2.07980
H          4.95240        3.55620       -1.34950
H          2.48930        6.41440       -0.43610
H          1.48020        5.87020       -1.80610
H          0.86530        5.73510       -0.09350
H         -1.37110        4.87730       -0.25910
H         -0.98830        5.88300       -1.69540
H         -2.51990        4.95780       -1.63700
H         -0.27070        4.02600       -4.66460
H          0.34670        5.32710       -3.63270
H          1.34290        3.83500       -3.82740
H         -2.96740        2.70950       -2.57950
H         -1.98560        2.34870       -4.02250
H         -1.81360        1.29290       -2.55000
H          0.38670       -1.67230       -6.58600
H          2.02010       -1.00250       -6.28250
H          1.36600       -2.30340       -5.21880
H         -0.82280        1.89520       -5.85560
H          0.90740        2.27800       -5.49850
H          0.48080        1.18220       -6.84640
H         -1.58530       -0.95550       -3.36670
H         -2.20610        0.07630       -4.73450
H         -1.62740       -1.59460       -5.05790
H          5.23880       -1.66680       -4.18310
H          3.50530       -2.11810       -4.38250
H          4.35150       -1.17290       -5.65540
H          5.19590        1.36510       -1.92120
H          6.18460        0.39720       -3.06820
H          5.61080        2.02710       -3.51500
H          2.88740        1.09970       -6.00660
H          3.10070        2.51210       -4.87630
H          4.51640        1.73420       -5.66690
H         -4.41220       -1.17330        3.94510
H         -3.78530       -2.83780        4.26810
H         -4.18170       -2.32940        2.57870
H         -2.24770        0.54370        5.01350
H         -1.67210       -0.94780        5.80610
H         -0.52770        0.06390        4.84000
H         -0.91440       -3.26170        2.14410
H          0.27070       -2.45140        3.13750
H         -0.95740       -3.55370        3.94560
H         -5.42690       -0.34660        1.85750
H         -6.05560        1.31940        1.61560
H         -5.53130        0.36970        0.19350
H         -4.23800        3.00420        3.21190
H         -4.06960        1.37010        3.94090
H         -2.59220        2.37150        3.57960
H         -4.21700        2.87640       -0.41020
H         -2.41510        2.69590       -0.22590
H         -3.34120        3.76670        0.89630
H         -4.24550       -4.29280        1.29840
H         -2.77700       -4.45580        2.34260
H         -3.38850       -5.86410        1.42530
H         -3.16330       -6.30570       -1.36830
H         -2.57110       -5.11310       -2.56150
H         -4.14540       -4.85930       -1.70990
H         -0.37830       -5.76140       -1.22520
H          0.25540       -4.75660        0.12180
H         -0.68920       -6.28660        0.46260
H         -5.36180        0.24900       -2.20100
H         -3.83020        0.84830       -1.46650
H         -3.92310        0.44170       -3.23860
H         -2.98710       -3.15840       -3.71250
H         -4.12910       -1.89550       -4.29130
H         -4.75830       -3.31860       -3.39730
H         -5.37380       -3.33080       -0.80350
H         -4.88850       -2.09650        0.40300
H         -6.09710       -1.70140       -0.88310
H          5.59450       -4.81520        1.10770
H          6.82380       -3.93820        0.14650
H          6.16160       -3.18400        1.62400
H          3.61070       -4.93140       -1.73770
H          5.37740       -4.71760       -1.99370
H          4.22580       -3.60590       -2.79370
H          4.56640       -0.62580       -1.02750
H          6.19170       -1.11770       -0.34530
H          5.76300       -1.60600       -2.00410
H          0.81750       -5.06130        3.92960
H         -0.12010       -5.31430        2.41290
H          1.04230       -6.53730        2.97420
H          4.36500       -3.68200        3.05230
H          4.39280       -5.49140        3.11230
H          3.33710       -4.56860        4.23840
H          2.15490       -6.06930       -0.22060
H          2.66970       -7.05930        1.19140
H          3.85800       -6.00990        0.36250
H          4.83020       -0.58980        5.14680
H          4.01860       -1.53850        6.41550
H          4.45440       -2.34210        4.87760
H          1.68230       -2.43470        6.53520
H          0.26590       -2.14450        5.50450
H          1.55680       -3.30100        4.97830
H          1.39340        1.42330        5.01950
H          2.89090        1.16060        5.98050
H          1.33850        0.43080        6.52160
H          3.50750        2.32820        3.86270
H          5.15480        2.83280        3.33110
H          4.97200        1.57340        4.59100
H          5.36070        2.55470        0.88900
H          4.16630        1.52230       -0.02290
H          5.91710        1.02530        0.20270
H          6.58320       -0.16290        3.51770
H          5.57140       -1.56550        3.00260
H          6.64790       -0.72900        1.81910
H          1.40470       -4.31410       -1.86580
H          2.00070       -3.16110       -3.10100
H         -0.22380       -5.55250       -5.12770
H          0.75700       -5.95880       -3.66790
H          1.40190       -4.79890       -4.90620
