180
mol61-A-0
C         -1.44060        2.10300        5.93170
S         -0.62990        0.96710        4.76360
C         -1.45130        1.64160        3.29890
Ge        -0.98860        0.80340        1.57700
Ge        -1.89680       -1.67240        1.73620
C         -1.09630       -2.54600        3.45770
C         -1.01360       -4.09430        3.47010
C         -1.90040       -2.18000        4.73380
C          0.32750       -2.03210        3.66960
C         -3.90760       -2.07540        2.08700
C         -4.72910       -1.75810        0.83100
C         -4.13640       -3.58160        2.37800
C         -4.49970       -1.28310        3.28950
Ge        -1.26570       -2.63560       -0.57530
C         -2.70400       -3.63020       -1.73280
C         -3.68740       -4.53170       -0.94340
C         -2.10560       -4.57080       -2.81200
C         -3.53590       -2.60270       -2.50010
C          0.03480       -4.23800       -0.26260
C          0.71130       -4.80650       -1.55010
C          1.14400       -3.82280        0.71880
C         -0.73230       -5.41820        0.38790
Ge         1.62930        1.01660        1.25260
C          2.12450        2.88830        2.06060
C          2.30780        2.85610        3.59860
C          0.96940        3.85480        1.81700
C          3.42000        3.56410        1.53130
C          3.05310       -0.11550        2.29380
C          3.09500       -1.53060        1.69620
C          2.78360       -0.22140        3.82470
C          4.49570        0.46370        2.17210
Ge         1.82960        0.46920       -1.30150
C          3.15320       -0.98480       -2.01910
C          3.69160       -0.77990       -3.46490
C          4.40900       -1.15850       -1.13110
C          2.40020       -2.30010       -2.08990
C          2.77950        2.11520       -2.12760
C          2.82590        2.15330       -3.68170
C          4.23870        2.16890       -1.61760
C          2.11880        3.40510       -1.65230
Ge        -0.57330       -0.45780       -1.88620
Ge        -2.41550        1.37980       -2.19360
C         -4.38330        0.91730       -2.71790
C         -5.09930        0.27070       -1.52530
C         -4.52200       -0.03040       -3.94840
C         -5.18050        2.20220       -3.05810
C         -1.86100        2.48000       -3.87940
C         -0.33380        2.61800       -3.95030
C         -2.44600        3.91350       -3.97670
C         -2.29770        1.77280       -5.18500
Ge        -2.43910        2.48750        0.13610
C         -4.25450        2.76750        1.14720
C         -5.45940        3.20240        0.27000
C         -4.16690        3.83730        2.26490
C         -4.65700        1.47170        1.84980
C         -1.94100        4.49900       -0.13630
C         -0.70700        4.60240       -1.03870
C         -3.08250        5.24930       -0.86870
C         -1.66060        5.29220        1.17840
C         -0.55100       -1.31450       -3.65570
S          0.40270       -0.45710       -4.92930
C          0.04680       -1.67440       -6.23450
H         -1.17920        3.15330        5.68580
H         -1.08820        1.87650        6.95870
H         -2.54180        1.96980        5.89230
H         -1.22110        2.71500        3.23790
H         -2.53050        1.52540        3.45960
H         -1.95300       -4.61200        3.25900
H         -0.69440       -4.45120        4.47470
H         -0.24780       -4.47350        2.79370
H         -2.21140       -1.12860        4.74040
H         -1.30460       -2.35170        5.65760
H         -2.77890       -2.82530        4.88200
H          0.47110       -1.53600        4.64870
H          1.07630       -2.84960        3.68430
H          0.58000       -1.31980        2.87170
H         -5.30250       -0.83630        0.90260
H         -5.55060       -2.47440        0.62540
H         -4.04980       -1.71600       -0.02680
H         -3.94240       -3.86000        3.42500
H         -5.19650       -3.88230        2.23340
H         -3.50920       -4.20760        1.72800
H         -4.61390       -1.88430        4.21140
H         -3.86490       -0.42260        3.54630
H         -5.53110       -0.91960        3.09630
H         -3.21250       -5.30620       -0.33430
H         -4.36110       -5.07520       -1.64300
H         -4.35970       -3.96470       -0.31100
H         -2.89590       -4.90330       -3.52240
H         -1.72990       -5.51320       -2.39090
H         -1.34310       -4.08130       -3.43250
H         -4.62710       -2.75190       -2.36010
H         -3.39060       -2.65850       -3.59890
H         -3.24420       -1.59470       -2.17770
H          0.59310       -4.12790       -2.40210
H          0.32800       -5.79460       -1.87020
H          1.79190       -5.01620       -1.41200
H          1.43990       -4.61750        1.43330
H          0.80350       -2.94160        1.27140
H          2.10490       -3.60120        0.23020
H         -1.22100       -6.07950       -0.34750
H         -0.06500       -6.10570        0.95010
H         -1.51210       -5.04730        1.06480
H          2.33300        3.88770        4.01720
H          3.26490        2.42630        3.91610
H          1.47280        2.35080        4.09160
H          0.23650        3.38130        1.15330
H          0.43860        4.13540        2.74940
H          1.31150        4.81980        1.38780
H          4.33240        2.97640        1.65950
H          3.60930        4.51050        2.08550
H          3.35570        3.87780        0.49260
H          2.63680       -2.29200        2.33420
H          4.12010       -1.92950        1.56420
H          2.57930       -1.52750        0.72830
H          2.87960       -1.25370        4.21870
H          3.49570        0.34030        4.46130
H          1.79320        0.16620        4.06440
H          4.71990        1.25850        2.90120
H          4.70750        0.88290        1.18920
H          5.27220       -0.30000        2.39330
H          4.49560       -0.03510       -3.54450
H          2.90050       -0.55790       -4.18650
H          4.17350       -1.71590       -3.82850
H          4.44370       -2.13050       -0.60190
H          4.45170       -0.35430       -0.40890
H          5.36700       -1.11330       -1.69400
H          3.06400       -3.17800       -1.94450
H          1.94050       -2.44890       -3.08330
H          1.59430       -2.28070       -1.35200
H          2.09910        1.46110       -4.11340
H          2.60870        3.16030       -4.09880
H          3.82410        1.91960       -4.09930
H          4.87100        1.35720       -2.00080
H          4.26370        2.10310       -0.52610
H          4.74310        3.11150       -1.92430
H          2.82980        4.25420       -1.56620
H          1.39750        3.79690       -2.36580
H          1.62320        3.21350       -0.69630
H         -4.54870        0.52130       -0.61390
H         -5.20150       -0.81150       -1.61110
H         -6.16330        0.56500       -1.41560
H         -4.86910        0.47220       -4.87230
H         -3.56940       -0.51150       -4.18800
H         -5.28580       -0.82280       -3.80130
H         -6.27920        2.04770       -2.99330
H         -5.03620        2.53380       -4.10020
H         -4.90990        3.02490       -2.38230
H          0.12680        2.07020       -3.11760
H         -0.00890        3.67740       -3.93350
H          0.10200        2.24180       -4.89650
H         -2.19540        4.36210       -4.96380
H         -2.00970        4.59220       -3.24640
H         -3.53130        3.98260       -3.88540
H         -2.05510        0.69980       -5.16910
H         -3.36600        1.92240       -5.39940
H         -1.78840        2.20840       -6.07320
H         -6.34460        3.41240        0.91080
H         -5.79260        2.42010       -0.40490
H         -5.30760        4.10690       -0.32090
H         -4.17670        4.86090        1.86590
H         -3.30590        3.67430        2.93300
H         -5.06960        3.80480        2.91560
H         -5.68150        1.14280        1.57740
H         -3.92140        0.69670        1.59830
H         -4.69650        1.56140        2.95570
H         -0.59790        3.65660       -1.57720
H         -0.72900        5.44730       -1.75650
H          0.21200        4.82690       -0.49300
H         -3.55300        4.60420       -1.62230
H         -2.73040        6.17560       -1.37140
H         -3.86310        5.62060       -0.18320
H         -2.43670        6.04070        1.43330
H         -0.74730        5.91930        1.12520
H         -1.57030        4.61760        2.03630
H         -1.58110       -1.41320       -4.01700
H         -0.14200       -2.32220       -3.54730
H          0.43160       -2.67310       -5.94030
H         -1.04690       -1.73070       -6.41600
H          0.55000       -1.35710       -7.17060
