72
mol6-B-0
C         -3.92900        3.96010       -0.17610
S         -2.33740        3.44510        0.54810
C         -2.30900        1.78030       -0.22220
C         -1.17040        0.66480       -0.05760
C         -1.21380        0.04760        1.59340
C         -2.60060       -0.57900        2.22020
F         -3.72620        0.17870        1.94170
F         -2.87580       -1.87120        1.93230
F         -2.61010       -0.63080        3.60600
C         -1.21080        1.29970        2.68660
F         -2.43450        1.93890        2.77810
F         -0.97180        0.93920        3.99530
F         -0.36040        2.30610        2.49180
C          0.01990       -1.11830        1.72650
C         -0.35950       -2.57190        2.42380
F         -1.06680       -3.45820        1.73500
F          0.76670       -3.30180        2.75670
F         -1.08270       -2.47980        3.59800
C          0.98470       -0.68250        3.00280
F          2.14300       -1.40440        3.13640
F          0.40900       -0.89990        4.24320
F          1.31970        0.62480        3.09910
C         -1.66380       -0.58010       -1.23070
C         -3.30250       -0.88940       -1.13390
F         -4.07160        0.14250       -1.65400
F         -3.86250       -1.08700        0.05780
F         -3.72800       -1.99990       -1.83500
C         -1.78110       -0.23850       -2.85430
F         -2.54770       -1.14200       -3.57190
F         -0.63660       -0.27810       -3.57650
F         -2.42530        0.94970       -3.15080
C         -0.61640       -1.89310       -1.03160
C          0.03390       -2.56730       -2.41480
F          0.57530       -3.82560       -2.19090
F         -0.86680       -2.77640       -3.43970
F          1.02530       -1.94060       -3.04520
C         -1.52540       -3.25600       -0.74370
F         -2.58020       -3.12720        0.09530
F         -0.79850       -4.36190       -0.33980
F         -2.17020       -3.75660       -1.86300
C          0.65950       -1.37750        0.09790
C          1.51230        0.04520       -0.49950
C          2.95970        0.23650        0.29490
F          3.92920       -0.65570       -0.12750
F          3.58040        1.45250        0.10500
F          2.97710        0.09370        1.61910
C          2.25070        0.02660       -1.97040
F          2.97770       -1.12780       -2.21050
F          3.20620        1.01980       -2.12510
F          1.47520        0.27300       -3.05020
C          0.41270        1.34450       -0.45830
C          1.10880        2.56160        0.42710
F          2.13090        3.22320       -0.23210
F          1.73000        2.20560        1.57520
F          0.28360        3.61510        0.72710
C          0.29350        2.30200       -1.80450
F         -0.34830        1.84540       -2.87210
F         -0.38040        3.48180       -1.54880
F          1.50360        2.69440       -2.34500
C          1.66620       -2.62420        0.09090
S          3.12280       -2.86770        1.17940
C          3.61700       -4.47480        0.47540
H         -3.86590        3.95470       -1.28410
H         -4.73990        3.28020        0.15810
H         -4.16320        4.98970        0.16350
H         -3.26870        1.36180        0.08870
H         -2.40460        2.03150       -1.27650
H          2.09830       -2.73060       -0.90650
H          1.10070       -3.53330        0.28500
H          2.80240       -5.21730        0.60530
H          4.52010       -4.83860        1.00670
H          3.85670       -4.36370       -0.60250
