84
mol64-D-1
C         -1.32920        1.14280       -6.31400
S         -1.44390        1.43430       -4.52170
C         -0.16620        0.20950       -4.09590
Ge         0.07790        0.15880       -2.16760
Ge         1.24150        2.12120       -1.46150
C          0.40010        3.66090       -2.24860
C          0.38160        3.82560       -3.57010
C          3.06670        2.00560       -2.05390
C          3.89770        3.03630       -1.91090
Ge         1.14760        2.25540        0.93090
C          2.84430        2.85270        1.61480
C          3.00900        3.11380        2.91010
C         -0.25660        3.44630        1.48340
C         -0.17470        4.75440        1.24820
Ge         1.35690       -1.76310       -1.56180
C          0.20520       -3.30550       -1.61410
C          0.42660       -4.31510       -2.45440
C          2.82920       -1.90770       -2.79370
C          3.73530       -2.87630       -2.67650
Ge         2.16330       -1.43180        0.66320
C          3.91320       -0.64040        0.57450
C          4.58670       -0.34470        1.68440
C          2.21980       -3.09200        1.63180
C          3.06270       -4.06200        1.28390
Ge         0.68560        0.07260        1.78270
Ge        -1.57470       -0.52790        1.26330
C         -2.81400        0.40910        2.40020
C         -4.12370        0.37590        2.15870
C         -1.74830       -2.42880        1.50890
C         -2.92150       -3.04450        1.37430
Ge        -2.00640        0.11500       -1.00180
C         -3.23550       -1.11890       -1.82150
C         -3.69080       -0.92170       -3.05750
C         -2.73830        1.89520       -0.96450
C         -2.92110        2.59280       -2.08420
C          1.03330       -0.03620        3.69360
S          0.05870        1.21930        4.57900
C          0.68260        0.75230        6.22330
H         -0.30800        1.38600       -6.67460
H         -2.05870        1.79670       -6.83400
H         -1.56730        0.08350       -6.54440
H          0.79800        0.47450       -4.57520
H         -0.48710       -0.79620       -4.43730
H         -0.07500        4.39460       -1.60790
H          0.85160        3.10150       -4.22730
H         -0.10490        4.69350       -4.00260
H          3.41500        1.09000       -2.51840
H          4.92450        2.95780       -2.25190
H          3.56000        3.96260       -1.45680
H          3.68100        2.96300        0.93520
H          3.97580        3.43880        3.27980
H          2.18510        3.01470        3.60710
H         -1.12080        3.04090        1.99860
H          0.68840        5.17420        0.74150
H         -0.97440        5.41470        1.56640
H         -0.65340       -3.33740       -0.95360
H         -0.24580       -5.16640       -2.46660
H          1.26660       -4.30150       -3.13950
H          2.91610       -1.18150       -3.59500
H          3.65620       -3.61830       -1.89100
H          4.55910       -2.93760       -3.37980
H          4.34680       -0.42500       -0.39630
H          4.16640       -0.55450        2.66220
H          5.56890        0.11090        1.61860
H          1.55850       -3.22930        2.48060
H          3.74640       -3.93290        0.45310
H          3.08200       -4.99130        1.84350
H         -2.44100        0.98620        3.23640
H         -4.80850        0.91600        2.80400
H         -4.52090       -0.17280        1.31140
H         -0.86630       -3.00500        1.76480
H         -3.81910       -2.49000        1.12690
H         -2.98970       -4.11780        1.51670
H         -3.56240       -1.98840       -1.26400
H         -3.37580       -0.06230       -3.63840
H         -4.38220       -1.63060       -3.50060
H         -2.98800        2.34010       -0.00720
H         -2.65900        2.17750       -3.05010
H         -3.32390        3.59880       -2.03650
H          0.75880       -1.05090        4.04920
H          2.11490        0.13800        3.86610
H          0.43270       -0.30730        6.43970
H          0.20470        1.39780        6.98820
H          1.78230        0.89620        6.26830
