180
mol67-C-0
C         -1.97310       -5.86230        0.23400
S         -1.39860       -4.31020        0.99000
C         -1.16540       -3.45690       -0.58580
Ge        -0.51800       -1.63210       -0.37190
Ge         1.13190       -1.45440        1.53610
Si         2.50680       -3.41440        1.29470
C          2.09300       -4.35210       -0.24810
C          4.35560       -3.17950        1.35250
C          2.21260       -4.76310        2.56090
Si         0.78060       -1.87560        3.88330
C         -0.18140       -3.42620        4.34120
C          2.38720       -2.06240        4.84410
C         -0.11820       -0.47740        4.68520
Ge         1.93760        0.91260        1.32550
Si         1.98420        2.37660        3.21430
C          2.55130        4.12550        2.82080
C          0.34340        2.69700        3.97340
C          3.09810        1.73820        4.56710
Si         4.33100        0.91470        1.17900
C          5.24230        2.52850        1.48300
C          5.05550       -0.18110        2.49910
C          4.94620        0.35610       -0.47210
Ge        -2.66360       -0.34570       -0.05780
Si        -3.85710       -1.40870        1.70410
C         -4.66470       -2.99560        1.11870
C         -2.72330       -1.91700        3.05980
C         -5.23090       -0.41380        2.48970
Si        -4.55220       -0.47080       -1.52070
C         -6.13840        0.05370       -0.66960
C         -4.94730       -2.19690       -2.14370
C         -4.39620        0.66460       -2.99050
Ge        -1.98490        2.01290        0.19080
Si        -3.01130        3.70190       -1.13980
C         -2.32310        3.71890       -2.84490
C         -4.86950        3.59740       -1.31810
C         -2.66800        5.41680       -0.46530
Si        -2.90600        2.91700        2.20510
C         -4.71230        3.37850        2.00910
C         -2.09430        4.51150        2.76590
C         -2.88510        1.71590        3.63140
Ge         0.46280        2.03770       -0.37610
Ge         1.04990        1.23260       -2.69700
Si         0.10080        1.86810       -4.79180
C         -1.59420        1.16380       -4.98130
C         -0.05070        3.70080       -5.16800
C          1.10370        1.15760       -6.20330
Si         3.15940        2.30620       -3.17160
C          3.81080        3.17850       -1.67740
C          4.55660        1.27010       -3.84190
C          3.09600        3.74850       -4.36720
Ge         0.63750       -1.23610       -2.58300
Si        -0.69860       -2.43970       -4.18540
C         -2.46540       -1.94120       -4.19580
C         -0.14950       -2.34740       -5.97150
C         -0.82720       -4.28190       -3.81420
Si         2.64910       -2.33720       -3.29250
C          3.96190       -2.31380       -1.99330
C          3.34060       -1.55110       -4.83490
C          2.53610       -4.13780       -3.80730
C          0.90900        3.92290       -0.15370
S          0.62860        4.87900       -1.66610
C          1.16950        6.45930       -0.94470
H         -2.88860       -5.67990       -0.36640
H         -1.17860       -6.28820       -0.41350
H         -2.20950       -6.58900        1.03770
H         -0.44350       -4.02470       -1.18180
H         -2.12120       -3.42120       -1.13370
H          2.98630       -4.89700       -0.61230
H          1.73660       -3.63750       -0.99660
H          1.29800       -5.09480       -0.04070
H          4.84950       -4.05960        0.89310
H          4.64640       -2.28110        0.79570
H          4.69480       -3.10540        2.40420
H          2.53250       -4.45060        3.56980
H          2.81840       -5.64840        2.27810
H          1.14840       -5.06480        2.55500
H         -0.66830       -3.86270        3.46410
H         -0.95620       -3.18530        5.09630
H          0.48750       -4.18900        4.78470
H          3.22850       -2.27980        4.16630
H          2.60330       -1.15950        5.44150
H          2.29780       -2.90180        5.56240
H         -0.46640        0.17200        3.87220
H          0.57460        0.05640        5.36230
H         -0.98020       -0.83680        5.28000
H          1.68030        4.75810        2.55840
H          3.25640        4.15980        1.98080
H          3.03670        4.56090        3.71780
H          0.22240        3.77850        4.17470
H          0.22140        2.18240        4.94090
H         -0.37400        2.35290        3.22150
H          3.23440        0.65680        4.42940
H          2.64260        1.93230        5.55930
H          4.08440        2.23940        4.52400
H          6.32680        2.34870        1.33460
H          4.93450        3.32220        0.78090
H          5.10130        2.86570        2.52630
H          5.39740        0.42790        3.35910
H          4.27060       -0.87050        2.83990
H          5.92700       -0.73930        2.10170
H          4.06390        0.26760       -1.12720
H          5.65000        1.10090       -0.89140
H          5.49620       -0.59740       -0.38040
H         -4.05980       -3.46570        0.32350
H         -4.76180       -3.70220        1.96760
H         -5.68000       -2.78540        0.73460
H         -1.71010       -1.73650        2.67820
H         -2.91560       -1.33200        3.97930
H         -2.86900       -2.99020        3.29150
H         -6.21810       -0.76340        2.13050
H         -5.20460       -0.53960        3.59090
H         -5.10910        0.64830        2.24040
H         -6.60810       -0.81310       -0.16860
H         -5.93930        0.83900        0.07730
H         -6.85540        0.43990       -1.42210
H         -5.25090       -2.14340       -3.20870
H         -4.07510       -2.86340       -2.03910
H         -5.79340       -2.63030       -1.57690
H         -4.29490        0.09270       -3.93100
H         -3.51280        1.29540       -2.82710
H         -5.29610        1.30320       -3.08650
H         -1.50330        2.98960       -2.83960
H         -3.10470        3.44680       -3.57910
H         -1.94470        4.72850       -3.09750
H         -5.20660        2.58090       -1.08350
H         -5.36750        4.31590       -0.63890
H         -5.16380        3.84840       -2.35710
H         -3.45980        5.71160        0.24790
H         -2.66880        6.15300       -1.29440
H         -1.68660        5.44360        0.03990
H         -5.21630        2.68790        1.31260
H         -5.21780        3.33360        2.99510
H         -4.80440        4.41310        1.63010
H         -2.66300        5.38730        2.40070
H         -2.09120        4.55180        3.87400
H         -1.06040        4.57740        2.38990
H         -3.90720        1.55730        4.02470
H         -2.27270        2.09570        4.47100
H         -2.47910        0.77020        3.25220
H         -2.35000        1.95790       -5.12210
H         -1.62560        0.50840       -5.87050
H         -1.79530        0.60440       -4.05750
H          0.10720        4.30420       -4.26310
H         -1.06060        3.92040       -5.56880
H          0.68510        3.99590       -5.94130
H          1.08770        0.06030       -6.15420
H          0.66130        1.48130       -7.16750
H          2.15640        1.48610       -6.15820
H          4.91870        3.17780       -1.68620
H          3.46980        4.23160       -1.66450
H          3.42320        2.65570       -0.79820
H          5.51150        1.81630       -3.70130
H          4.41800        1.10890       -4.92890
H          4.62200        0.31400       -3.30600
H          2.85890        3.42270       -5.39310
H          4.09870        4.22230       -4.39500
H          2.37580        4.51000       -4.01720
H         -2.70780       -1.32740       -5.08150
H         -2.60400       -1.38830       -3.26010
H         -3.11540       -2.83720       -4.22820
H         -0.53210       -1.42670       -6.44590
H          0.94610       -2.39500       -6.05110
H         -0.57820       -3.20550       -6.52750
H         -1.74560       -4.49470       -3.23210
H          0.03140       -4.65200       -3.23950
H         -0.88950       -4.85050       -4.76380
H          4.31430       -3.34240       -1.78350
H          4.83310       -1.72710       -2.33630
H          3.50310       -1.88240       -1.08910
H          2.88940       -0.55540       -4.95010
H          3.11360       -2.16400       -5.72750
H          4.44400       -1.48020       -4.76390
H          1.84900       -4.25360       -4.66740
H          2.22820       -4.78640       -2.96830
H          3.54300       -4.46940       -4.13410
H          0.28460        4.32940        0.65660
H          1.96060        4.02130        0.14740
H          2.23050        6.39010       -0.62620
H          0.53330        6.72080       -0.07390
H          1.07560        7.25600       -1.71040
