72
mol6-A-0
C         -2.16640        4.41470       -1.50810
S         -0.68840        3.43780       -1.07960
C         -1.59190        1.89640       -0.67350
C         -0.93160        0.52040       -0.18860
C         -2.35470       -0.51980        0.10710
C         -3.50560       -0.11530        1.23200
F         -3.24040       -0.40980        2.52200
F         -3.92210        1.20430        1.17920
F         -4.70380       -0.79360        1.08250
C         -3.47670       -0.38630       -1.13490
F         -3.07160       -0.46040       -2.40200
F         -4.49240       -1.32010       -1.11260
F         -4.15700        0.82340       -1.11950
C         -1.77810       -2.07150        0.47930
C         -2.48820       -3.13510       -0.57140
F         -1.96580       -4.40250       -0.55310
F         -3.81870       -3.39660       -0.29290
F         -2.57300       -2.75600       -1.86760
C         -2.40750       -2.84300        1.80320
F         -2.04030       -2.44230        3.01550
F         -2.08340       -4.18800        1.82210
F         -3.78500       -2.81750        1.89880
C         -0.00820        0.79660        1.28700
C         -0.84500        1.81830        2.28720
F         -0.33340        1.94060        3.56420
F         -0.87340        3.11280        1.79950
F         -2.12860        1.57390        2.52750
C          1.34380        1.75060        1.32010
F          1.22220        2.94960        0.66660
F          2.50440        1.18800        0.91090
F          1.69890        2.17850        2.58780
C          0.42640       -0.73090        1.88420
C          2.01370       -0.94370        2.38870
F          2.52590        0.07580        3.16470
F          2.17950       -2.06570        3.18880
F          2.97870       -1.10350        1.48390
C         -0.11830       -0.84600        3.44750
F         -1.36030       -0.38490        3.70540
F         -0.01700       -2.11180        3.99970
F          0.60250       -0.08630        4.35370
C         -0.02870       -1.93630        0.64540
C          0.74160       -1.59350       -0.90290
C          2.38940       -1.54430       -0.96960
F          2.97830       -0.37020       -0.64000
F          2.99280       -2.56630       -0.25960
F          2.92060       -1.73810       -2.23880
C          0.67510       -2.87370       -1.95310
F         -0.46560       -3.55220       -2.07840
F          1.58800       -3.87320       -1.65720
F          0.99830       -2.53860       -3.25260
C          0.08600       -0.12740       -1.47440
C         -0.57620       -0.34480       -2.96960
F         -1.24090       -1.50600       -3.17940
F          0.34720       -0.39930       -4.00640
F         -1.37610        0.71070       -3.36840
C          1.17840        0.97760       -2.05010
F          1.85260        1.73580       -1.18530
F          0.61250        1.91800       -2.89600
F          2.16850        0.41850       -2.83260
C          0.56040       -3.30010        1.24360
S          0.38180       -4.96510        0.50030
C          1.31480       -5.84920        1.79270
H         -2.70390        3.94480       -2.35780
H         -2.84220        4.49180       -0.63120
H         -1.84990        5.43520       -1.80590
H         -2.16440        1.73240       -1.58320
H         -2.31940        2.22500        0.07130
H          1.63960       -3.22260        1.34990
H          0.17870       -3.43950        2.25700
H          2.35470       -5.46510        1.84600
H          0.81690       -5.72570        2.77690
H          1.34520       -6.92890        1.54070
