36
mol68-D-2
C          1.79910       -0.34110        5.62790
S          2.76170       -1.03510        4.24810
C          1.43950       -2.11180        3.59810
Ge         2.05700       -3.09800        2.03460
Ge         2.50990       -1.64840        0.17860
Ge         4.43210       -0.31230        0.67010
Ge         0.65810       -0.20650       -0.29400
Ge         2.93100       -2.99580       -1.75330
Ge         0.96490       -3.10220       -3.11210
Ge         4.71660       -2.05370       -3.03700
Ge         0.48390       -4.76630        1.34620
Ge        -1.36620       -3.71500        0.25190
Ge        -0.29840       -5.99650        3.24520
Ge         1.57170       -6.27080       -0.16670
Ge         0.09300       -6.85810       -1.95320
Ge         2.21090       -8.25640        1.00620
Ge         3.51950       -5.20270       -1.05450
Ge         5.16340       -5.03670        0.67400
Ge         6.89510       -3.53780       -0.01590
Ge         6.12300       -7.17930        1.13880
Ge         4.09450       -4.19500        2.64300
Ge         3.60540       -6.00070        4.13380
Ge         5.54090       -2.64460        3.75130
C          4.20590       -6.16850       -2.59530
S          4.43280       -7.92410       -2.17390
C          5.05010       -8.38850       -3.82140
H          0.90940        0.19150        5.24140
H          1.48500       -1.14960        6.32020
H          2.43280        0.38030        6.18300
H          0.52340       -1.54350        3.33500
H          1.17430       -2.84850        4.38360
H          5.17490       -5.71820       -2.89510
H          3.47650       -6.07140       -3.42620
H          4.27950       -8.17580       -4.59140
H          5.97860       -7.82630       -4.05330
H          5.27620       -9.47440       -3.83000
