180
mol60-B-0
C         -3.91370        0.74870        4.69740
S         -3.11770        1.20730        3.12730
C         -2.14110       -0.32470        3.00770
Ge        -1.02990       -0.35570        1.39470
Ge        -1.95840       -1.96890       -0.17450
C         -3.89310       -1.71740       -0.49380
C         -4.73250       -1.27850        0.72230
C         -5.02020       -2.42800        1.69450
C         -6.05740       -0.65830        0.25640
C         -1.64730       -3.70050        0.70020
C         -2.66550       -4.80970        0.36780
C         -2.46950       -5.34340       -1.04550
C         -2.54180       -5.95630        1.37960
Ge        -0.69870       -1.77440       -2.27150
C         -0.01160       -3.47940       -3.00550
C         -0.81920       -4.21810       -4.10200
C         -0.58170       -3.63050       -5.50410
C         -0.40480       -5.69910       -4.13860
C         -1.46780       -0.60280       -3.66710
C         -2.99100       -0.59490       -3.92210
C         -3.61360       -1.98630       -4.05700
C         -3.30100        0.23570       -5.17450
Ge         1.10270       -1.14660        2.19330
C          0.73480       -2.80330        3.19840
C          1.76390       -3.16100        4.29920
C          1.06970       -3.88710        5.46120
C          2.89650       -4.04140        3.76300
C          1.99230        0.24360        3.27900
C          1.11170        0.91640        4.35540
C          1.77860        2.21200        4.83980
C          0.85370        0.00740        5.56230
Ge         2.45130       -1.62050        0.25110
C          2.62570       -3.58220        0.09940
C          3.13440       -4.10100       -1.25650
C          2.85430       -5.60390       -1.39190
C          4.62400       -3.82940       -1.48550
C          4.15990       -0.69080        0.54270
C          4.97130       -1.14330        1.77650
C          5.91370       -2.30810        1.45540
C          5.78760        0.03190        2.33530
Ge         1.37180       -0.62290       -1.70140
Ge         0.90950        1.74330       -1.33530
C          2.50440        2.65620       -0.62060
C          3.83130        2.31590       -1.33110
C          3.88910        2.80610       -2.77990
C          5.01290        2.89460       -0.54160
C          0.21650        2.60710       -2.98070
C          0.68000        4.06390       -3.25430
C         -0.40580        5.09060       -2.90510
C          1.07180        4.24030       -4.73030
Ge        -0.86430        1.80110        0.30870
C         -2.59470        1.84140       -0.61580
C         -3.17820        3.23970       -0.86360
C         -4.00080        3.25730       -2.15910
C         -4.06050        3.68370        0.31200
C         -0.52700        3.17620        1.68370
C          0.00550        4.52920        1.14840
C         -1.04150        5.64600        1.26350
C          1.27260        4.96470        1.90250
C          2.63680       -0.79740       -3.19190
S          1.88140       -0.26930       -4.75880
C          3.36420       -0.60280       -5.75890
H         -3.14530        0.58820        5.48210
H         -4.58640        1.57120        5.01530
H         -4.51440       -0.17510        4.56370
H         -2.80070       -1.20980        3.00740
H         -1.49680       -0.40920        3.89830
H         -3.96320       -0.91650       -1.23890
H         -4.32340       -2.63170       -0.95150
H         -4.18680       -0.48880        1.25790
H         -5.59510       -2.05180        2.56730
H         -4.07970       -2.86330        2.08240
H         -5.61520       -3.22300        1.19660
H         -6.65540       -0.32370        1.13100
H         -5.86410        0.23150       -0.38090
H         -6.65110       -1.39540       -0.32580
H         -1.68840       -3.49740        1.78950
H         -0.62470       -4.04190        0.45440
H         -3.69520       -4.41890        0.43790
H         -3.21790       -6.13300       -1.27000
H         -1.45280       -5.77250       -1.14560
H         -2.61210       -4.52320       -1.77220
H         -1.51860       -6.38990        1.35780
H         -3.27700       -6.75650        1.14810
H         -2.75240       -5.58600        2.40570
H          0.13580       -4.14080       -2.12770
H          0.98310       -3.25930       -3.43290
H         -1.89810       -4.17970       -3.87370
H         -1.07270       -4.26310       -6.27440
H          0.50370       -3.57580       -5.73570
H         -1.01890       -2.62830       -5.60610
H          0.67310       -5.79660       -4.39300
H         -0.57490       -6.18930       -3.16190
H         -1.00320       -6.24980       -4.89570
H         -1.19990        0.41390       -3.35930
H         -0.91730       -0.76340       -4.60820
H         -3.48310       -0.06530       -3.08990
H         -3.39760       -2.60060       -3.16410
H         -4.71790       -1.89640       -4.13650
H         -3.24510       -2.50150       -4.96610
H         -2.89000        1.26260       -5.06560
H         -4.39950        0.31900       -5.31940
H         -2.85530       -0.23380       -6.07800
H         -0.26700       -2.65570        3.65320
H          0.63440       -3.64410        2.48410
H          2.22160       -2.24000        4.70640
H          0.60140       -4.83080        5.10690
H          1.80260       -4.12690        6.26080
H          0.28200       -3.24430        5.90780
H          3.49930       -3.47850        3.03460
H          2.49550       -4.95860        3.28060
H          3.57780       -4.34100        4.58780
H          2.89700       -0.17530        3.76020
H          2.33040        1.01430        2.55550
H          0.13420        1.18490        3.91430
H          1.97310        2.89610        3.98920
H          1.11600        2.74070        5.55800
H          2.74680        1.99040        5.33840
H          1.80900       -0.29040        6.04480
H          0.22990        0.53830        6.31280
H          0.29820       -0.89740        5.25910
H          3.26340       -3.97980        0.90470
H          1.61170       -3.98660        0.27320
H          2.57570       -3.59220       -2.04620
H          3.17630       -5.96670       -2.39150
H          3.39810       -6.17460       -0.60850
H          1.76690       -5.80800       -1.29100
H          4.91320       -4.15580       -2.50720
H          4.84090       -2.74780       -1.41220
H          5.24460       -4.38820       -0.75480
H          4.78090       -0.72300       -0.37490
H          3.85660        0.35870        0.70360
H          4.27940       -1.46640        2.57280
H          6.57340       -2.06080        0.59620
H          6.54950       -2.54420        2.33530
H          5.33680       -3.21830        1.22490
H          6.36230       -0.28650        3.23130
H          5.11290        0.85850        2.64520
H          6.49590        0.41440        1.56900
H          2.35310        3.75270       -0.62640
H          2.57550        2.34280        0.44050
H          3.94850        1.22290       -1.35370
H          3.81480        3.91250       -2.82880
H          3.07910        2.34120       -3.37340
H          4.85100        2.50120       -3.24450
H          5.00620        2.51840        0.50300
H          4.96050        4.00450       -0.51820
H          5.97380        2.58920       -1.00820
H         -0.88970        2.57390       -2.94830
H          0.52080        1.95350       -3.81890
H          1.56570        4.30740       -2.64580
H         -1.34500        4.88080       -3.46090
H         -0.61530        5.08010       -1.82350
H         -0.06380        6.11630       -3.16100
H          0.19840        4.04830       -5.39040
H          1.43970        5.27280       -4.91200
H          1.88510        3.53850       -5.00870
H         -3.31730        1.22720       -0.04580
H         -2.42660        1.31690       -1.57290
H         -2.34930        3.95570       -0.98980
H         -4.83230        2.52150       -2.10500
H         -4.42450        4.26950       -2.33200
H         -3.35710        3.00430       -3.02830
H         -4.40940        4.72650        0.15540
H         -4.94780        3.02120        0.40910
H         -3.49440        3.64720        1.26290
H          0.23450        2.72330        2.33880
H         -1.43050        3.31870        2.30700
H          0.27570        4.41960        0.08440
H         -1.93980        5.41350        0.66810
H         -1.34450        5.79270        2.32250
H         -0.62720        6.60130        0.87590
H          1.04670        5.13730        2.97700
H          1.67790        5.90220        1.46530
H          2.06140        4.18920        1.82970
H          2.95950       -1.84720       -3.29570
H          3.53750       -0.19120       -2.99080
H          3.14570       -0.36380       -6.81970
H          4.20670        0.03240       -5.41400
H          3.64380       -1.67420       -5.68180
