60
mol65-A-1
C          6.03050       -0.23540        2.21240
S          4.73440       -0.86820        1.10290
C          3.42440        0.18920        1.79510
Ge         1.75390       -0.15710        0.86660
Ge         1.94490        0.52310       -1.41100
C          3.57030       -0.12490       -2.12980
C          4.60410       -0.54340       -2.58520
C          1.88550        2.41200       -1.49380
C          1.84100        3.61500       -1.54110
Ge         0.10420       -0.39260       -2.62710
C         -0.47930        0.84720       -3.93110
C         -0.85310        1.64060       -4.75680
C          0.62500       -2.01960       -3.43990
C          0.95650       -3.05940       -3.94990
Ge        -0.03840        1.06310        1.86340
C          0.51770        2.84010        2.19660
C          0.87480        3.97190        2.40320
C         -0.53880        0.20930        3.47560
C         -0.85600       -0.34220        4.49860
Ge        -1.88700        1.06150        0.35020
C         -3.50170        0.95010        1.32950
C         -4.52840        0.87370        1.95510
C         -1.85240        2.63720       -0.69600
C         -1.82390        3.63760       -1.36650
Ge        -1.66830       -0.82820       -1.09230
Ge        -1.06770       -2.72540        0.22460
C         -1.26290       -4.29740       -0.80920
C         -1.38480       -5.29560       -1.47250
C         -2.18360       -2.79000        1.75070
C         -2.89420       -2.82230        2.72300
Ge         1.20830       -2.48100        0.90780
C          2.33670       -3.39580       -0.30380
C          3.05390       -3.97250       -1.08120
C          1.41730       -3.16830        2.65790
C          1.54670       -3.60170        3.77460
C         -3.31340       -1.16000       -2.07010
S         -4.62310       -1.65230       -0.90570
C         -5.89410       -1.84620       -2.19340
H          5.75930       -0.43680        3.26970
H          6.16380        0.85590        2.05980
H          6.98610       -0.74960        1.98260
H          3.28490       -0.03660        2.87280
H          3.68830        1.25960        1.66780
H          5.51180       -0.91210       -2.98500
H          1.79940        4.67150       -1.58130
H         -1.18180        2.33830       -5.48140
H          1.24820       -3.97380       -4.39530
H          1.18880        4.96620        2.58380
H         -1.13470       -0.82900        5.39580
H         -5.43030        0.80510        2.50440
H         -1.79630        4.51540       -1.95670
H         -1.49140       -6.17180       -2.05600
H         -3.51770       -2.84820        3.57750
H          3.68300       -4.47720       -1.76610
H          1.66020       -3.98090        4.75580
H         -3.13270       -1.97330       -2.80320
H         -3.60450       -0.23190       -2.60450
H         -5.58300       -2.62300       -2.92260
H         -6.05600       -0.88150       -2.71790
H         -6.84570       -2.16050       -1.71800
