72
mol63-D-1
C         -2.13760       -0.47080        5.77000
S         -2.07090       -1.14200        4.08020
C         -1.18240        0.28130        3.38880
Ge        -0.81430        0.09570        1.47000
Ge         1.36280       -1.19560        1.44930
C          1.29000       -2.73120        2.77350
Cl         0.54040       -2.24350        4.30700
Cl         0.39230       -4.11810        2.21420
Cl         2.88320       -3.39540        3.20430
C          2.99690       -0.29060        2.17330
Cl         4.47980       -1.19820        1.79540
Cl         2.92170       -0.09370        3.94160
Cl         3.26090        1.29230        1.49620
Ge         1.76290       -1.74670       -0.94190
C          3.60480       -1.36720       -1.70350
Cl         4.84410       -2.55400       -1.23370
Cl         3.59440       -1.35840       -3.47870
Cl         4.28100        0.16440       -1.21460
C          1.79470       -3.74040       -1.13620
Cl         0.24060       -4.48030       -0.86930
Cl         2.87160       -4.50560        0.05570
Cl         2.33890       -4.24380       -2.75540
Ge        -0.59750        2.45850        0.51610
C         -2.09760        3.80550        0.27920
Cl        -1.39510        5.39090       -0.13370
Cl        -3.20230        3.41900       -1.02610
Cl        -3.13970        4.08770        1.70000
C          0.47250        3.54620        1.88480
Cl        -0.45150        4.72700        2.84160
Cl         1.15390        2.56260        3.17680
Cl         1.73490        4.53060        1.13950
Ge         0.25070        2.02960       -1.83660
C          2.04740        2.86100       -2.29800
Cl         3.19240        2.98100       -0.98940
Cl         2.87550        1.97690       -3.59590
Cl         1.90870        4.55320       -2.82820
C         -0.76910        2.85200       -3.37170
Cl         0.09980        2.69050       -4.91690
Cl        -2.28150        2.04620       -3.64740
Cl        -1.14390        4.57990       -3.18250
Ge        -0.00500       -0.45990       -2.21680
Ge        -2.35600       -1.42780       -1.94140
C         -2.38640       -3.19490       -2.97960
Cl        -3.14880       -4.50610       -2.07540
Cl        -0.79700       -3.69530       -3.54960
Cl        -3.28350       -3.18560       -4.51560
C         -4.06980       -0.67440       -2.72640
Cl        -5.38060       -1.86230       -2.50710
Cl        -4.62350        0.79590       -1.94850
Cl        -4.04160       -0.29400       -4.46970
Ge        -2.70640       -1.32430        0.56950
C         -4.36320       -0.39730        1.25360
Cl        -4.25580        1.32650        1.08250
Cl        -5.87820       -0.89030        0.46360
Cl        -4.59980       -0.64900        2.99990
C         -3.05460       -3.10230        1.49140
Cl        -2.25920       -4.49030        0.79980
Cl        -2.58280       -3.06770        3.20260
Cl        -4.76540       -3.58570        1.43360
C          0.52100       -0.74860       -4.08540
S         -0.87310       -0.62500       -5.24060
C          0.12980       -0.95690       -6.72190
H         -1.11000       -0.31020        6.15760
H         -2.69710        0.48780        5.77760
H         -2.65970       -1.19650        6.42620
H         -0.23140        0.39490        3.93170
H         -1.78690        1.19270        3.55030
H          0.97410       -1.75270       -4.17820
H          1.27610        0.00050       -4.37010
H         -0.52680       -0.93180       -7.61550
H          0.91620       -0.18120       -6.83190
H          0.59820       -1.96040       -6.64830
