72
mol6-C-0
C         -2.66160       -3.26600       -5.03110
S         -1.01080       -3.03640       -4.29160
C         -1.56340       -1.99570       -2.89160
C         -0.60740       -1.37650       -1.74660
C         -1.68140       -1.08400       -0.39100
C         -3.14450       -0.41920       -0.91620
F         -3.87890       -1.23040       -1.75930
F         -3.13880        0.72430       -1.60830
F         -4.05430       -0.15880        0.08610
C         -2.43990       -2.36090        0.30600
F         -3.28410       -3.08490       -0.51720
F         -1.65470       -3.29390        0.87420
F         -3.29220       -1.95580        1.32030
C         -0.78540       -0.22850        0.81270
C         -1.70760        1.09040        1.16050
F         -1.14210        2.00770        2.01030
F         -2.20110        1.83470        0.14920
F         -2.85130        0.70410        1.84390
C         -0.76010       -0.77590        2.42020
F          0.46840       -0.99360        2.93510
F         -1.21140        0.11200        3.39070
F         -1.48110       -1.89290        2.73140
C          0.00670        0.12800       -2.39130
C          0.58560       -0.16750       -3.91020
F          1.36750        0.83610       -4.44990
F          1.30740       -1.28320       -4.07430
F         -0.42780       -0.31580       -4.84340
C         -0.99580        1.33280       -2.90830
F         -1.46040        2.18630       -1.96230
F         -2.08140        0.91660       -3.65500
F         -0.36790        2.21450       -3.77500
C          1.05580        0.79150       -1.23710
C          0.89500        2.38860       -0.84640
F         -0.08360        2.70450        0.01100
F          2.02460        2.89830       -0.22640
F          0.70980        3.24280       -1.91680
C          2.51940        1.02200       -1.96430
F          2.94400        0.04390       -2.80200
F          2.52690        2.11910       -2.81250
F          3.56420        1.31130       -1.10750
C          0.88710       -0.14210        0.23130
C          1.53590       -1.75840        0.02310
C          3.22410       -1.72200       -0.05940
F          3.84910       -1.25210        1.07940
F          3.82210       -2.95360       -0.22000
F          3.82300       -0.98320       -0.99870
C          1.55840       -2.77300        1.31210
F          2.30510       -2.35270        2.39860
F          2.15170       -3.98440        0.99680
F          0.36680       -3.10550        1.84080
C          0.67460       -2.50600       -1.27400
C         -0.02010       -4.04300       -1.07510
F          0.39710       -5.03670       -1.95370
F          0.14030       -4.67130        0.12650
F         -1.34200       -4.11590       -1.33810
C          1.84660       -3.04710       -2.29610
F          1.40650       -3.57340       -3.48480
F          2.84660       -2.21410       -2.65190
F          2.52400       -4.11230       -1.72130
C          1.86600        0.54850        1.31450
S          1.43460        1.96680        2.38720
C          3.04430        2.06820        3.23780
H         -3.08580       -2.28570       -5.33240
H         -3.34060       -3.76430       -4.30830
H         -2.56700       -3.90600       -5.93200
H         -2.15290       -1.21010       -3.35250
H         -2.34690       -2.61610       -2.48150
H          2.80030        0.83670        0.84440
H          2.22430       -0.15490        2.05190
H          3.25880        1.11780        3.76910
H          3.85110        2.28140        2.50600
H          3.00850        2.89200        3.97950
