60
mol65-D-0
C          4.06280        8.39090       -6.53230
S          4.03480        8.05400       -4.74440
C          3.11050        6.49450       -4.90680
Ge         2.82680        5.72350       -3.14680
Ge         1.75790        7.28690       -1.69690
C          0.34510        8.13980       -2.62140
C         -0.55620        8.67760       -3.21270
C          3.03420        8.55610       -1.11510
C          3.85300        9.35830       -0.74450
Ge         0.89430        6.09730        0.18530
C          0.98540        7.19920        1.72020
C          1.04470        7.90390        2.69560
C         -0.90190        5.60920       -0.15210
C         -2.04360        5.29290       -0.37100
Ge         1.43980        3.79330       -3.32560
C          2.06870        2.69480       -4.73140
C          2.47520        1.99570       -5.62420
C         -0.33980        4.34200       -3.65770
C         -1.47230        4.69700       -3.86460
Ge         1.54890        2.59560       -1.26120
C          2.85310        1.23130       -1.38900
C          3.68980        0.36830       -1.46990
C         -0.14710        1.85620       -0.86730
C         -1.22950        1.39110       -0.61530
Ge         2.18240        4.10510        0.47620
Ge         4.50210        4.61800        0.16440
C          4.95850        6.15850        1.16280
C          5.24450        7.14300        1.79550
C          5.56420        3.14530        0.69570
C          6.23720        2.20390        1.03090
Ge         4.88970        5.05540       -2.15220
C          5.49570        3.47780       -3.00230
C          5.87380        2.46990       -3.54310
C          6.17200        6.43550       -2.32510
C          6.98470        7.31820       -2.43250
C          1.76480        3.27140        2.19260
S          3.20400        3.28550        3.31390
C          2.36680        2.45030        4.69720
H          4.60120        9.34380       -6.71250
H          4.59070        7.57350       -7.06620
H          3.02670        8.48480       -6.91910
H          2.12210        6.68630       -5.37360
H          3.68290        5.77200       -5.52510
H         -1.34810        9.14910       -3.73250
H          4.57400       10.06070       -0.41830
H          1.09850        8.52170        3.55290
H         -3.04530        5.01330       -0.56530
H          2.83330        1.38160       -6.40800
H         -2.46680        5.01020       -4.04410
H          4.42680       -0.38760       -1.54130
H         -2.18060        0.98370       -0.39390
H          5.49350        8.00870        2.35060
H          6.82720        1.37640        1.32490
H          6.20350        1.58350       -4.01750
H          7.69740        8.09470       -2.52690
H          1.48910        2.21450        2.00040
H          0.88890        3.77510        2.65160
H          3.07440        2.35980        5.54630
H          2.03980        1.43490        4.39140
H          1.49210        3.04330        5.02530
