180
mol67-B-0
C         -2.73760        5.67350        0.56320
S         -1.37740        4.52480        0.93860
C         -2.18250        3.09060        0.18340
Ge        -1.09930        1.47520        0.30570
Ge        -2.82220       -0.36780        0.24570
Si        -4.52020        0.43680       -1.25740
C         -5.26840        2.07350       -0.70610
C         -5.98050       -0.69450       -1.55440
C         -3.89540        0.86350       -2.92930
Si        -4.42620       -0.79030        1.97970
C         -5.87400        0.39100        2.15130
C         -5.29550       -2.41780        1.71180
C         -3.65740       -0.81940        3.65800
Ge        -1.52820       -2.48300       -0.11510
Si        -2.60490       -3.48390       -1.99560
C         -1.79040       -4.97520       -2.79370
C         -2.84330       -2.25030       -3.34710
C         -4.32460       -4.05590       -1.52930
Si        -1.65960       -4.48830        1.22170
C         -1.72470       -6.09480        0.25950
C         -0.10140       -4.77160        2.18420
C         -3.07850       -4.66560        2.41860
Ge         0.16200        1.40490        2.48950
Si         1.88530        2.85560        3.27910
C          2.26390        2.49450        5.07580
C          1.58980        4.70790        3.20160
C          3.46290        2.55350        2.37080
Si        -1.45300        2.19540        4.09950
C         -1.18430        3.94360        4.71820
C         -1.67910        1.22860        5.67800
C         -3.13270        2.39420        3.34190
Ge         1.25670       -0.84890        2.46490
Si         3.60030       -1.20440        2.87880
C          4.25430       -0.63390        4.53630
C          4.09920       -3.01460        2.74830
C          4.70390       -0.42890        1.63440
Si         0.63320       -1.97580        4.48950
C          1.65810       -3.45130        5.03150
C         -1.09770       -2.61580        4.43440
C          0.78690       -0.84600        5.96460
Ge         0.87480       -1.75910        0.14220
Ge         1.77750       -0.32970       -1.72240
Si         1.93100       -1.71970       -3.65130
C          0.47460       -2.83500       -3.79460
C          3.41170       -2.86480       -3.56090
C          2.08890       -0.83660       -5.29180
Si         4.06410        0.34370       -1.92450
C          5.31050       -0.99100       -1.49020
C          4.51140        0.79590       -3.68830
C          4.45780        1.86560       -0.92150
Ge         0.32700        1.66580       -1.75930
Si         1.30100        3.84010       -1.73260
C          2.77790        4.09440       -2.85060
C          1.83810        4.31610       -0.03850
C          0.06570        5.15610       -2.23740
Si        -0.52980        1.98700       -3.96960
C          0.74910        2.73550       -5.11840
C         -1.03430        0.38800       -4.78560
C         -1.96780        3.18850       -4.08070
C          2.07200       -3.29520        0.07230
S          1.51100       -4.55950       -1.09460
C          2.90450       -5.68520       -0.77560
H         -3.66720        5.34330        1.07170
H         -2.90690        5.72220       -0.53250
H         -2.46720        6.68450        0.93030
H         -3.14140        2.92330        0.68470
H         -2.38100        3.29380       -0.88110
H         -4.73690        2.91900       -1.18620
H         -6.33180        2.12050       -1.01620
H         -5.21190        2.20990        0.38170
H         -6.28850       -1.19620       -0.62610
H         -6.83410       -0.09330       -1.92750
H         -5.73900       -1.43990       -2.33270
H         -4.17930        0.10180       -3.67660
H         -4.32630        1.82760       -3.26300
H         -2.80960        0.93750       -2.80640
H         -5.54320        1.40820        2.42590
H         -6.47380        0.41120        1.22130
H         -6.52920        0.02110        2.96640
H         -5.41790       -2.94730        2.67750
H         -6.30970       -2.26260        1.29840
H         -4.70080       -3.01780        1.00880
H         -4.17130       -0.10430        4.32910
H         -2.60310       -0.52420        3.52960
H         -3.75580       -1.82470        4.10600
H         -0.74840       -5.08280       -2.46350
H         -2.35240       -5.89730       -2.54780
H         -1.80150       -4.86360       -3.89660
H         -3.92220       -2.14160       -3.56020
H         -2.34710       -2.57080       -4.28120
H         -2.40400       -1.31110       -2.98400
H         -4.29870       -4.77040       -0.68840
H         -4.93330       -3.19220       -1.22670
H         -4.80010       -4.54140       -2.40580
H         -1.64830       -6.93620        0.97850
H         -0.86650       -6.16570       -0.43300
H         -2.67900       -6.20980       -0.28050
H          0.59890       -5.40070        1.60120
H          0.35920       -3.79890        2.38540
H         -0.32950       -5.30310        3.12920
H         -3.25100       -3.72600        2.96010
H         -3.99070       -4.98350        1.87640
H         -2.83220       -5.45570        3.15690
H          3.04700        3.19360        5.43350
H          1.36520        2.60240        5.70770
H          2.63260        1.46410        5.17720
H          1.40420        5.11000        4.21660
H          0.73720        4.94720        2.55170
H          2.49110        5.21540        2.80280
H          4.24450        2.23800        3.08540
H          3.24520        1.76850        1.63360
H          3.82080        3.46820        1.86380
H         -0.28690        4.01890        5.35420
H         -1.12930        4.64960        3.86990
H         -2.05600        4.23180        5.34100
H         -0.86780        1.47640        6.39040
H         -2.64060        1.52120        6.14660
H         -1.70640        0.15010        5.47370
H         -3.91700        2.22160        4.10500
H         -3.25740        3.42370        2.95370
H         -3.22490        1.67790        2.51910
H          4.49120        0.44440        4.50720
H          3.53550       -0.84660        5.34040
H          5.19750       -1.17270        4.75810
H          3.26480       -3.69200        2.97270
H          4.45890       -3.24020        1.72480
H          4.92810       -3.22460        3.45380
H          4.04760       -0.20420        0.78690
H          5.19420        0.47650        2.03330
H          5.50550       -1.13510        1.34260
H          1.25670       -3.81620        5.99900
H          2.71200       -3.15550        5.19510
H          1.59290       -4.28380        4.30870
H         -1.47020       -2.43670        3.41240
H         -1.71680       -2.10960        5.19700
H         -1.11430       -3.70000        4.65830
H          1.70470       -1.06810        6.54070
H          0.82170        0.19200        5.60510
H         -0.06970       -0.99760        6.65100
H         -0.11200       -2.58890       -4.69960
H         -0.11050       -2.67700       -2.87980
H          0.80300       -3.89010       -3.86930
H          3.62340       -3.14180       -2.51340
H          4.29920       -2.37350       -4.00090
H          3.20890       -3.78500       -4.14540
H          1.74990        0.20090       -5.18750
H          1.47080       -1.34780       -6.05720
H          3.13980       -0.84640       -5.63950
H          4.85000       -1.77120       -0.86170
H          6.16570       -0.53440       -0.95230
H          5.70870       -1.46510       -2.40750
H          4.85510       -0.10020       -4.23770
H          3.64360        1.22910       -4.21080
H          5.34090        1.53170       -3.68650
H          4.92930        2.63990       -1.55760
H          5.16570        1.63720       -0.10370
H          3.51190        2.24710       -0.51550
H          3.54280        4.70770       -2.33290
H          2.48010        4.62780       -3.77380
H          3.21240        3.12310       -3.11580
H          1.49090        3.50960        0.61980
H          1.38060        5.28150        0.25400
H          2.93800        4.42710        0.00040
H          0.33470        6.12230       -1.76460
H          0.08870        5.29790       -3.33360
H         -0.95340        4.87140       -1.92240
H          0.70430        3.83970       -5.07350
H          0.53770        2.42960       -6.16300
H          1.76240        2.40370       -4.84140
H         -2.12590        0.34950       -4.95610
H         -0.54370        0.28290       -5.77280
H         -0.71910       -0.43210       -4.12750
H         -1.61960        4.18170       -4.42290
H         -2.70060        2.81700       -4.82500
H         -2.46030        3.30590       -3.10110
H          3.07370       -2.93970       -0.21810
H          2.14370       -3.74500        1.06790
H          3.86500       -5.18360       -1.01540
H          2.90280       -6.00250        0.28790
H          2.79750       -6.58250       -1.41840
