60
mol65-E-2
C         -5.93690        7.51640        5.70970
S         -4.44850        7.55480        4.66370
C         -4.48750        5.77310        4.29340
Ge        -2.99580        5.31890        3.13510
Ge        -0.94180        5.65260        4.29870
C         -0.69800        4.23820        5.53100
C         -0.54500        3.33190        6.30980
C         -0.98750        7.31730        5.19600
C         -1.01850        8.38030        5.76210
Ge         0.83810        5.64550        2.70640
C          1.19260        7.41950        2.15360
C          1.41290        8.54900        1.79720
C          2.38430        4.89470        3.49610
C          3.36730        4.41620        4.00230
Ge        -3.11070        3.03550        2.45710
C         -3.51530        1.95380        3.95510
C         -3.76900        1.26810        4.91250
C         -4.44570        2.85700        1.12870
C         -5.29350        2.75110        0.27950
Ge        -0.99170        2.40600        1.55140
C         -1.27280        1.23260        0.09420
C         -1.45390        0.48990       -0.83700
C          0.02390        1.55510        2.90150
C          0.67070        1.01880        3.76490
Ge         0.14140        4.38010        0.80290
Ge        -1.44620        5.71020       -0.38520
C         -2.39080        4.59900       -1.58980
C         -2.99330        3.88530       -2.35070
C         -0.54310        7.08400       -1.32100
C          0.03510        7.96030       -1.91160
Ge        -2.97630        6.67770        1.17440
C         -4.70390        6.73200        0.40560
C         -5.80430        6.76060       -0.08430
C         -2.40450        8.41980        1.63910
C         -2.03580        9.52670        1.93970
C          1.65950        4.04000       -0.37830
S          2.05220        2.26080       -0.47200
C          3.45080        2.44200       -1.62210
H         -6.14250        8.54010        6.08390
H         -5.77650        6.84240        6.57690
H         -6.80940        7.16770        5.11880
H         -4.40360        5.18480        5.23070
H         -5.43270        5.51480        3.77240
H         -0.41100        2.53390        6.99160
H         -1.04610        9.31440        6.25820
H          1.60360        9.54110        1.48290
H          4.23030        3.99420        4.44600
H         -3.99110        0.66640        5.75410
H         -6.03720        2.66030       -0.46770
H         -1.61310       -0.16140       -1.65550
H          1.23950        0.55010        4.52400
H         -3.52340        3.25680       -3.01670
H          0.54350        8.73040       -2.42950
H         -6.77100        6.78420       -0.51370
H         -1.70950       10.49770        2.20470
H          2.53670        4.63110       -0.04220
H          1.38440        4.38550       -1.39560
H          3.10500        2.88040       -2.58110
H          3.88770        1.44230       -1.82060
H          4.22970        3.08770       -1.17390
