72
mol62-D-2
C         -2.29910       -5.13050       -3.16560
S         -1.10670       -3.79880       -2.82540
C         -2.11370       -3.03340       -1.51980
Ge        -1.21350       -1.46850       -0.79150
Ge         0.99970       -2.04230        0.01940
C          1.03800       -3.16270        1.61710
F          0.72780       -2.41660        2.73010
F          0.14040       -4.20190        1.48770
F          2.30670       -3.68470        1.77680
C          1.93190       -3.12840       -1.30580
F          3.22170       -3.37450       -0.87720
F          1.97710       -2.48020       -2.51710
F          1.26550       -4.32860       -1.45970
Ge         2.18950       -0.00470        0.49780
C          3.06200       -0.07080        2.24110
F          2.12830       -0.15160        3.24650
F          3.88860       -1.17560        2.30280
F          3.81620        1.07350        2.41540
C          3.68920        0.13380       -0.74370
F          3.27590       -0.15040       -2.02430
F          4.22520        1.40380       -0.69800
F          4.66400       -0.77620       -0.38360
Ge        -1.03880        0.08920       -2.63680
C          0.07890       -0.59230       -4.08190
F          1.40250       -0.30670       -3.83380
F         -0.28730        0.00910       -5.27020
F         -0.09450       -1.95760       -4.19670
C         -2.76930        0.33280       -3.50430
F         -3.73610        0.64580       -2.57950
F         -2.67970        1.35490       -4.42940
F         -3.12450       -0.83610       -4.14920
Ge        -0.15780        2.17920       -1.83730
C         -1.52040        3.56480       -1.97900
F         -1.54660        4.05020       -3.27210
F         -1.21910        4.59850       -1.11390
F         -2.75970        3.04590       -1.67790
C          1.26390        2.82900       -3.00620
F          2.44460        2.17650       -2.73950
F          0.90950        2.61450       -4.32380
F          1.44220        4.18370       -2.80290
Ge         0.61500        1.83940        0.43100
Ge        -1.26690        1.37150        1.88080
C         -0.71750        0.98880        3.71210
F         -0.40030       -0.34420        3.84420
F         -1.75490        1.28350        4.57540
F          0.37510        1.76740        4.03990
C         -2.39300        2.95140        2.08660
F         -1.70720        3.90920        2.80810
F         -3.54630        2.60850        2.76520
F         -2.72980        3.47060        0.85980
Ge        -2.51460       -0.48440        0.99650
C         -2.92890       -1.77730        2.39880
F         -1.83870       -2.57430        2.65810
F         -3.28990       -1.10610        3.55060
F         -3.98230       -2.57330        1.99270
C         -4.27270        0.12220        0.41520
F         -4.18090        1.37350       -0.15180
F         -5.11660        0.19220        1.50660
F         -4.79050       -0.77340       -0.50030
C          1.41930        3.46550        1.13720
S          2.80700        3.99760        0.09030
C          3.19870        5.45890        1.10130
H         -3.26710       -4.70040       -3.49730
H         -1.89830       -5.77720       -3.97280
H         -2.45340       -5.74630       -2.25520
H         -2.27770       -3.76000       -0.69730
H         -3.09290       -2.71750       -1.93490
H          0.64400        4.25870        1.16480
H          1.77930        3.26420        2.16710
H          3.46790        5.14850        2.13240
H          2.32810        6.14690        1.13090
H          4.06110        5.99050        0.64970
