72
mol6-B-1
C         -4.08660        3.70890       -0.84840
S         -2.86340        2.62360       -1.65370
C         -2.27770        1.82160       -0.11130
C         -1.14810        0.69200        0.01530
C         -1.14610        0.07260        1.66600
C         -2.51970       -0.53820        2.33610
F         -3.64430        0.23360        2.09470
F         -2.81980       -1.82640        2.05550
F         -2.48560       -0.59230        3.72150
C         -1.09290        1.32270        2.76020
F         -2.30520        1.97650        2.89170
F         -0.81660        0.95710        4.06010
F         -0.23700        2.31900        2.53970
C          0.07690       -1.10840        1.75800
C         -0.29780       -2.55850        2.46520
F         -1.03750       -3.43500        1.79830
F          0.82950       -3.30260        2.76100
F         -0.98180       -2.45960        3.66210
C          1.08720       -0.68650        3.00340
F          2.24030       -1.42270        3.09890
F          0.54890       -0.89910        4.26130
F          1.44100        0.61640        3.09060
C         -1.69390       -0.54480       -1.14310
C         -3.33240       -0.83440       -0.99420
F         -4.10500        0.20770       -1.48810
F         -3.85630       -1.02720        0.21460
F         -3.79360       -1.93840       -1.68280
C         -1.85890       -0.19900       -2.76160
F         -2.65910       -1.09200       -3.45540
F         -0.73870       -0.25140       -3.52010
F         -2.49770        0.99740       -3.03570
C         -0.65680       -1.87080       -0.97930
C         -0.05930       -2.55050       -2.38340
F          0.47360       -3.81570       -2.17870
F         -0.99480       -2.74690       -3.37930
F          0.91890       -1.93480       -3.04440
C         -1.57270       -3.22300       -0.66420
F         -2.59840       -3.08280        0.20830
F         -0.84670       -4.33830       -0.28520
F         -2.25900       -3.71390       -1.76290
C          0.66080       -1.37270        0.10950
C          1.51130        0.04060       -0.51310
C          2.98570        0.21300        0.23480
F          3.93020       -0.69020       -0.21960
F          3.61470        1.42160        0.02680
F          3.04370        0.06770        1.55760
C          2.20200        0.01550       -2.00680
F          2.90680       -1.14720       -2.27160
F          3.16420        0.99730       -2.19080
F          1.39540        0.27320       -3.06100
C          0.42950        1.35310       -0.43500
C          1.16840        2.56010        0.42930
F          2.17680        3.21040       -0.26150
F          1.82160        2.19470        1.55640
F          0.36620        3.62310        0.75690
C          0.27910        2.31420       -1.77540
F         -0.40210        1.86730       -2.82250
F         -0.37190        3.50180       -1.49680
F          1.47590        2.69280       -2.35390
C          1.65150       -2.63150        0.06870
S          3.13910       -2.89450        1.10960
C          3.59090       -4.50630        0.38810
H         -4.84700        3.10090       -0.31560
H         -3.58170        4.39110       -0.13340
H         -4.59510        4.31700       -1.62420
H         -1.99940        2.67780        0.50710
H         -3.20960        1.43320        0.29430
H          2.05010       -2.74140       -0.94220
H          1.08140       -3.53400        0.27950
H          2.77180       -5.23900        0.54300
H          4.50600       -4.88190        0.88970
H          3.79730       -4.39630       -0.69680
