60
mol65-D-2
C          2.66560        7.73810       -7.09450
S          1.86430        7.04020       -5.61740
C          3.43030        6.64390       -4.77860
Ge         3.05420        5.82990       -3.05570
Ge         1.97030        7.37990       -1.60250
C          0.62020        8.29970       -2.55610
C         -0.24110        8.88020       -3.16610
C          3.25620        8.59440       -0.93170
C          4.08090        9.36160       -0.50450
Ge         0.99860        6.16060        0.20650
C          1.05730        7.21380        1.77680
C          1.09610        7.88750        2.77480
C         -0.79510        5.73420       -0.21700
C         -1.93510        5.45730       -0.49080
Ge         1.62330        3.94630       -3.34860
C          2.27850        2.87210       -4.76110
C          2.70170        2.18820       -5.65790
C         -0.12570        4.55520       -3.73440
C         -1.23860        4.94840       -3.97540
Ge         1.61530        2.68570       -1.31910
C          2.88580        1.28900       -1.43630
C          3.70120        0.40520       -1.51020
C         -0.11480        1.98380       -1.01590
C         -1.21890        1.54270       -0.82160
Ge         2.21870        4.12460        0.48750
Ge         4.56230        4.58000        0.28430
C          5.01980        6.07670        1.34680
C          5.30660        7.03360        2.02020
C          5.56130        3.06250        0.81230
C          6.19390        2.09280        1.14520
Ge         5.05580        5.07410       -2.00050
C          5.65240        3.50550       -2.87360
C          6.02450        2.50360       -3.42940
C          6.38140        6.42140       -2.07990
C          7.22170        7.28340       -2.12780
C          1.70890        3.25310        2.15960
S          3.10110        3.19310        3.33740
C          2.18580        2.34170        4.66000
H          1.88350        8.07410       -7.80570
H          3.29290        8.60930       -6.81250
H          3.29310        6.96720       -7.58830
H          4.01670        5.92650       -5.38950
H          4.02250        7.56830       -4.61520
H         -0.99800        9.38920       -3.70250
H          4.80700       10.03320       -0.12840
H          1.13180        8.47800        3.65210
H         -2.93540        5.21230       -0.73330
H          3.07460        1.58750       -6.44520
H         -2.21610        5.29510       -4.18470
H          4.41950       -0.36900       -1.57520
H         -2.18910        1.15630       -0.65080
H          5.55640        7.87510        2.61100
H          6.74870        1.24040        1.43700
H          6.34880        1.62240       -3.91720
H          7.95860        8.04150       -2.16990
H          1.41240        2.21060        1.92440
H          0.82920        3.76790        2.59860
H          2.85540        2.20610        5.53350
H          1.84380        1.34560        4.31050
H          1.31490        2.94960        4.97090
