36
mol66-E-1
C         -2.56480       -9.86930       -4.26860
S         -1.51970       -8.49200       -4.83610
C         -1.87040       -7.44160       -3.39210
Ge        -0.91700       -5.75530       -3.55370
Ge        -1.03400       -4.49020       -1.53060
Si         0.25020       -5.51590        0.09530
Si        -3.21420       -4.34000       -0.77280
Ge        -0.18510       -2.30060       -1.98920
Si         1.06940       -1.55820       -0.19370
Si        -1.93120       -0.82270       -2.32460
Ge        -1.80390       -4.42920       -5.33750
Si        -2.16280       -5.77070       -7.18650
Si        -3.81870       -3.49350       -4.69460
Ge        -0.23400       -2.69530       -5.85640
Si        -1.35050       -0.73480       -6.36240
Si         1.01890       -3.33860       -7.69070
Ge         1.18180       -2.34920       -3.95540
Ge         2.67110       -4.22540       -3.79020
Si         4.27600       -4.22110       -5.45860
Si         3.72700       -4.18020       -1.73410
Ge         1.38010       -6.23260       -4.00900
Si         1.55450       -7.06630       -6.15860
Si         2.14890       -7.84050       -2.53580
C          2.04680       -0.59910       -4.04800
S          3.83530       -0.74750       -4.36550
C          4.16490        1.04260       -4.36330
H         -2.19440      -10.25310       -3.29520
H         -2.52280      -10.68720       -5.01660
H         -3.61690       -9.53170       -4.16390
H         -2.95790       -7.23080       -3.32670
H         -1.53270       -7.95000       -2.46520
H          1.54130        0.02920       -4.81020
H          1.91730       -0.10300       -3.06500
H          3.97380        1.46310       -3.35430
H          5.22740        1.21570       -4.63040
H          3.52090        1.54940       -5.10780
