72
mol63-B-1
C          3.40360        1.50840       -5.28190
S          2.95110        0.39770       -3.91370
C          1.41630        1.27720       -3.50870
Ge         0.44400        0.46900       -2.00760
Ge        -0.94880       -1.31070       -3.14780
C         -2.39460       -0.71200       -4.39850
Cl        -1.73280       -0.01420       -5.89730
Cl        -3.47080       -2.05220       -4.85810
Cl        -3.45040        0.48600       -3.70290
C          0.17190       -2.33490       -4.49400
Cl         1.21350       -1.25420       -5.44180
Cl         1.22800       -3.52920       -3.78640
Cl        -0.78050       -3.25360       -5.68310
Ge        -1.99430       -2.59690       -1.29460
C         -3.98870       -2.95490       -1.40070
Cl        -4.43530       -4.24920       -2.53660
Cl        -4.93550       -1.58760       -1.92630
Cl        -4.65500       -3.44180        0.17110
C         -1.37130       -4.49720       -1.41140
Cl        -2.26480       -5.56140       -0.29750
Cl         0.32150       -4.68740       -1.04810
Cl        -1.55930       -5.15700       -3.05310
Ge         2.22960       -0.58490       -0.55570
C          3.56280        0.90570       -0.28490
Cl         2.78080        2.41760        0.05430
Cl         4.51660        1.22720       -1.75330
Cl         4.73260        0.63620        1.02690
C          3.52050       -1.87130       -1.45600
Cl         3.75400       -1.48600       -3.17330
Cl         5.13080       -1.87440       -0.70040
Cl         3.08540       -3.55800       -1.39520
Ge         1.01860       -1.47860        1.48710
C          1.29300       -3.39030        2.17380
Cl         2.76030       -4.14060        1.53970
Cl        -0.09430       -4.43770        1.89150
Cl         1.47210       -3.57210        3.93410
C          1.90720       -0.54490        3.05540
Cl         3.53760       -1.22650        3.28940
Cl         2.13930        1.17690        2.82060
Cl         1.08530       -0.69090        4.63250
Ge        -1.43890       -1.29440        0.80350
Ge        -2.41630        1.03800        0.69490
C         -4.42250        1.19300        0.40620
Cl        -4.94570        1.36340       -1.24740
Cl        -5.11930        2.64090        1.16890
Cl        -5.29800       -0.20820        1.05650
C         -2.42750        1.63870        2.62140
Cl        -2.66410        3.38490        2.86090
Cl        -0.95170        1.22450        3.43550
Cl        -3.69360        0.82330        3.57070
Ge        -0.95940        2.32070       -0.93910
C         -0.26080        3.89810        0.13090
Cl        -1.59070        5.05490        0.39610
Cl         0.32610        3.47200        1.72690
Cl         1.06180        4.83630       -0.61420
C         -1.74720        3.42010       -2.47930
Cl        -3.46140        3.77980       -2.25560
Cl        -1.48150        2.69340       -4.06120
Cl        -1.02700        5.02470       -2.74470
C         -2.48910       -2.22590        2.17510
S         -1.78410       -2.06210        3.83920
C         -3.07820       -3.05260        4.64840
H          2.61700        1.48950       -6.06480
H          3.53490        2.54390       -4.90480
H          4.36010        1.16370       -5.72530
H          0.77070        1.27920       -4.40050
H          1.66110        2.32450       -3.25350
H         -3.51160       -1.81790        2.18870
H         -2.54550       -3.29870        1.91470
H         -3.08490       -4.08240        4.23430
H         -2.86630       -3.10410        5.73580
H         -4.07090       -2.57950        4.49760
