72
mol6-C-2
C         -3.16830       -2.63620       -4.95950
S         -2.51100       -1.17530       -4.08850
C         -1.47530       -2.10290       -2.89880
C         -0.54830       -1.44780       -1.74990
C         -1.65120       -1.13790       -0.42170
C         -3.11120       -0.50160       -0.98900
F         -3.82040       -1.33950       -1.82770
F         -3.10490        0.62640       -1.70610
F         -4.04290       -0.22980       -0.01020
C         -2.40880       -2.40780        0.28910
F         -3.22900       -3.15930       -0.53370
F         -1.62440       -3.31910        0.89250
F         -3.28470       -1.99030        1.27780
C         -0.78790       -0.24600        0.77940
C         -1.73110        1.06960        1.08050
F         -1.19210        2.01170        1.92020
F         -2.21330        1.78580        0.04370
F         -2.88330        0.68530        1.75050
C         -0.78740       -0.75760        2.39890
F          0.43340       -0.94990        2.94170
F         -1.26690        0.14610        3.34070
F         -1.50190       -1.87570        2.72110
C          0.06140        0.04910       -2.41610
C          0.67250       -0.27300       -3.91680
F          1.45350        0.72730       -4.46380
F          1.40960       -1.38380       -4.04250
F         -0.32120       -0.45340       -4.86560
C         -0.94430        1.23070       -2.97850
F         -1.43630        2.09940       -2.06060
F         -2.01070        0.78570       -3.73620
F         -0.30970        2.10030       -3.85260
C          1.08080        0.74970       -1.25730
C          0.89490        2.35310       -0.90520
F         -0.10320        2.67650       -0.07360
F          2.00680        2.88920       -0.27540
F          0.72090        3.18140       -1.99760
C          2.55550        0.98100       -1.96170
F          3.00680       -0.01040       -2.76930
F          2.56710        2.05910       -2.83370
F          3.58040        1.30100       -1.09190
C          0.89440       -0.15320        0.22800
C          1.56480       -1.76620        0.06800
C          3.25380       -1.71220        0.01660
F          3.85160       -1.21030        1.15630
F          3.86830       -2.94020       -0.10530
F          3.86240       -0.98740       -0.92740
C          1.57380       -2.75190        1.37940
F          2.29490       -2.29940        2.47010
F          2.18640       -3.96310        1.10230
F          0.37610       -3.08630        1.89270
C          0.73680       -2.55200       -1.22830
C          0.05540       -4.09200       -1.00850
F          0.50030       -5.10000       -1.85680
F          0.19970       -4.69190        0.20960
F         -1.26030       -4.18580       -1.29470
C          1.93400       -3.10180       -2.21580
F          1.52260       -3.65920       -3.40060
F          2.93150       -2.26550       -2.57100
F          2.61200       -4.14640       -1.60480
C          1.84460        0.57220        1.31390
S          1.37720        2.00870        2.34660
C          2.96910        2.14710        3.22490
H         -3.74310       -3.27440       -4.25660
H         -2.33900       -3.22170       -5.40790
H         -3.84570       -2.29790       -5.76980
H         -2.14840       -2.83480       -2.46480
H         -0.91120       -2.72920       -3.57440
H          2.78450        0.86060        0.85530
H          2.19650       -0.11080        2.07340
H          3.18390        1.21110        3.78110
H          3.78730        2.35340        2.50400
H          2.91000        2.98660        3.94740
