72
mol62-D-0
C         -3.02640       -5.43750       -1.74360
S         -2.25740       -4.28140       -0.56750
C         -1.97330       -2.98230       -1.80690
Ge        -1.11640       -1.43600       -0.99190
Ge         1.09280       -2.00530       -0.16720
C          1.12470       -3.19660        1.37850
F          0.78070       -2.50800        2.51820
F          0.24970       -4.24520        1.18550
F          2.40020       -3.70180        1.53770
C          2.06900       -3.01220       -1.52290
F          3.35560       -3.25380       -1.08220
F          2.12300       -2.30860       -2.70250
F          1.42870       -4.21630       -1.74330
Ge         2.23450        0.03000        0.42500
C          3.07740       -0.09950        2.17930
F          2.12780       -0.24350        3.16260
F          3.92390       -1.19060        2.20600
F          3.80610        1.04930        2.41920
C          3.75290        0.25280       -0.78100
F          3.36770        0.01980       -2.08060
F          4.26340        1.52910       -0.66790
F          4.73850       -0.65460       -0.44470
Ge        -0.93940        0.20740       -2.76110
C          0.21650       -0.38660       -4.21480
F          1.52970       -0.08820       -3.92960
F         -0.14040        0.26160       -5.38120
F          0.07150       -1.74820       -4.39450
C         -2.65880        0.45840       -3.64840
F         -3.64750        0.71080       -2.72830
F         -2.57270        1.52310       -4.52440
F         -2.97990       -0.68620       -4.35210
Ge        -0.11310        2.27460       -1.85150
C         -1.49950        3.63980       -1.95530
F         -1.51230        4.18330       -3.22540
F         -1.23350        4.63830       -1.03880
F         -2.73360        3.08490       -1.70100
C          1.31610        3.00330       -2.96330
F          2.50430        2.36120       -2.70470
F          0.98910        2.84270       -4.29560
F          1.46460        4.35030       -2.69550
Ge         0.62610        1.84590        0.41290
Ge        -1.27160        1.27740        1.80510
C         -0.74710        0.82170        3.62700
F         -0.40670       -0.50990        3.70430
F         -1.80510        1.05740        4.48340
F          0.32430        1.60450        4.00980
C         -2.43140        2.82530        2.06150
F         -1.77700        3.76150        2.83820
F         -3.58960        2.43040        2.70250
F         -2.75650        3.39360        0.85350
Ge        -2.46750       -0.55880        0.81460
C         -2.88130       -1.92200        2.14890
F         -1.78070       -2.70960        2.39190
F         -3.27540       -1.31080        3.32310
F         -3.91190       -2.71790        1.68780
C         -4.22650        0.04110        0.22910
F         -4.14890        1.31840       -0.27870
F         -5.09070        0.04550        1.30680
F         -4.71080       -0.82110       -0.73540
C          1.38640        3.45260        1.20680
S          2.78170        4.05740        0.21100
C          3.12730        5.47800        1.29420
H         -2.30910       -5.69410       -2.55080
H         -3.30880       -6.36570       -1.20600
H         -3.93980       -4.98440       -2.18230
H         -2.94190       -2.65970       -2.24180
H         -1.31590       -3.36750       -2.61340
H          0.59550        4.22920        1.25610
H          1.73200        3.21100        2.23300
H          3.38420        5.12590        2.31500
H          2.24320        6.14770        1.33900
H          3.98710        6.04550        0.88320
