72
mol6-D-1
C         -3.57020       -3.20920        3.23840
S         -3.48780       -1.81300        2.06860
C         -1.68390       -1.90570        1.77590
C         -0.83900       -0.93420        0.80070
C          0.88120       -0.90320        1.22780
C          1.46150       -0.35760        2.66890
F          1.47770        0.96920        2.91290
F          2.79530       -0.71190        2.80910
F          0.88430       -0.90030        3.78940
C          1.38890       -2.50110        1.49910
F          0.42560       -3.43910        1.38100
F          1.79610       -2.81740        2.79050
F          2.44090       -2.97500        0.76900
C          1.66550        0.07650        0.04090
C          2.72220        1.28250        0.57680
F          2.23920        2.33150        1.24960
F          3.42960        1.91870       -0.42480
F          3.73620        0.83960        1.39880
C          2.88770       -0.77800       -0.64300
F          2.54640       -1.90150       -1.29950
F          3.67780       -0.08640       -1.54410
F          3.81140       -1.19200        0.30280
C         -1.60040        0.63600        0.90500
C         -1.79570        1.00210        2.50410
F         -0.76700        0.72780        3.31590
F         -2.11130        2.32010        2.77410
F         -2.84120        0.30120        3.08370
C         -3.20010        0.85740        0.56430
F         -4.05000       -0.10550        1.07400
F         -3.52620        1.03340       -0.74020
F         -3.70900        2.01970        1.12380
C         -0.71450        1.70240       -0.07000
C         -0.23310        2.96510        0.87760
F          0.71560        3.79690        0.31420
F         -1.26570        3.84810        1.15500
F          0.19030        2.66020        2.12940
C         -1.53300        2.68210       -1.11870
F         -2.66490        3.28440       -0.60330
F         -0.76900        3.75640       -1.54550
F         -1.93870        2.12950       -2.26890
C          0.42340        0.75240       -0.99690
C         -0.34970       -0.53570       -1.93810
C          0.76640       -1.09270       -3.09090
F          0.44140       -0.88600       -4.42700
F          1.95580       -0.45470       -3.09580
F          1.07410       -2.42280       -3.09860
C         -1.53600       -0.27700       -3.05010
F         -1.26330        0.66970       -4.00550
F         -1.73910       -1.42350       -3.80420
F         -2.78070        0.02680       -2.62740
C         -1.05000       -1.62690       -0.79690
C         -0.48710       -3.14130       -1.08210
F         -0.78260       -3.56080       -2.36890
F         -1.04080       -4.14680       -0.30950
F          0.83980       -3.32610       -0.96060
C         -2.65300       -2.10800       -1.03620
F         -3.63630       -1.21090       -0.91370
F         -2.91050       -2.66920       -2.26850
F         -3.09430       -3.09720       -0.17880
C          1.21270        1.79760       -1.94170
S          0.65110        2.38400       -3.58160
C          2.07730        3.47430       -3.90080
H         -4.61940       -3.33580        3.57510
H         -2.93250       -3.00710        4.12400
H         -3.23930       -4.14490        2.74160
H         -1.50270       -2.94380        1.51840
H         -1.31790       -1.88710        2.79200
H          2.21020        1.46090       -2.18340
H          1.43730        2.70460       -1.39050
H          2.13180        4.26930       -3.12830
H          1.95130        3.95050       -4.89470
H          3.01810        2.88580       -3.90310
