36
mol66-A-2
C         -2.81820       -2.13080       -5.27830
S         -2.82980       -1.87020       -3.47750
C         -1.07330       -1.40280       -3.38910
Ge        -0.58540       -1.00720       -1.54940
Ge        -2.12260        0.53090       -0.55170
Si        -2.45780        2.36670       -1.91820
Si        -4.15200       -0.52380       -0.21500
Ge        -1.20650        1.24290        1.54320
Si        -0.19480        3.30870        1.31080
Si        -2.88060        1.41390        3.12910
Ge         1.61830       -0.08130       -1.42260
Si         1.58880        2.11750       -2.13900
Si         3.04530       -1.29200       -2.78060
Ge         2.35080       -0.17780        0.85550
Si         3.53880        1.72890        1.40220
Si         3.71370       -2.02180        1.15830
Ge         0.42340       -0.35180        2.26410
Ge        -0.50250       -2.54550        2.03040
Si        -2.61080       -2.59240        2.97750
Si         0.82240       -4.11790        3.08990
Ge        -0.63770       -3.04970       -0.30660
Si        -2.59750       -4.18800       -0.76500
Si         1.15020       -4.37020       -0.94280
C          0.87280        0.03350        4.11580
S          2.29360       -0.97920        4.63220
C          2.33850       -0.31100        6.32400
H         -2.09450       -2.92950       -5.54350
H         -3.83160       -2.44160       -5.60530
H         -2.54600       -1.18890       -5.79830
H         -0.43670       -2.23480       -3.75520
H         -0.89290       -0.49690       -4.00430
H          1.12700        1.11050        4.20000
H         -0.00920       -0.19220        4.75040
H          3.16630       -0.79440        6.88200
H          2.51500        0.78440        6.29700
H          1.38160       -0.52490        6.84420
