132
mol78-D-0
C          4.69470       -4.51250       -0.94030
S          4.30180       -2.79490       -0.48700
C          2.56160       -2.89030       -1.02890
Ge         1.58320       -1.19570       -0.75490
Ge        -0.75850       -1.63300       -0.18440
N         -0.78380       -2.21620        1.62730
C         -0.28520       -3.58660        1.78650
C         -2.10340       -2.09750        2.25480
N         -1.49110       -2.93140       -1.37280
C         -2.73370       -3.53900       -0.88820
C         -0.53910       -3.98210       -1.73350
Ge        -1.92400        0.53190       -0.48930
N         -2.67020        0.64270       -2.23720
C         -3.62040        1.74690       -2.40410
C         -3.27420       -0.61240       -2.68940
N         -3.23120        0.73990        0.87910
C         -4.45800       -0.02420        0.63960
C         -3.55360        2.14030        1.15100
Ge         1.55820       -0.00570       -2.89700
N          3.23410        0.03840       -3.79340
C          3.18710       -0.25030       -5.22990
C          4.25480       -0.77000       -3.13450
N          0.21520       -0.94600       -3.86630
C         -0.56480       -0.10460       -4.77550
C          0.72090       -2.13250       -4.56900
Ge         0.96870        2.33730       -2.49600
N          2.50980        3.44100       -2.28190
C          2.20990        4.87070       -2.42720
C          3.60830        3.07880       -3.18680
N         -0.08460        2.87610       -3.98590
C          0.71550        3.07240       -5.19920
C         -0.92800        4.04480       -3.73570
Ge        -0.26010        2.35020       -0.37350
Ge         1.36050        2.05980        1.46680
N          0.57010        1.86750        3.18340
C         -0.07590        3.08070        3.69330
C         -0.38900        0.76460        3.18550
N          2.68710        3.41500        1.49360
C          2.18000        4.73930        1.13690
C          3.38620        3.46600        2.78250
Ge         2.60760       -0.01040        1.10860
N          2.42630       -1.04800        2.69460
C          2.93700       -2.41500        2.57780
C          2.96950       -0.39500        3.89100
N          4.40980        0.26860        0.57230
C          4.56870        1.54610       -0.12490
C          5.39440        0.14990        1.65090
C         -1.16800        4.11320       -0.33490
S         -1.13490        4.96020        1.27080
C         -2.06380        6.41760        0.69960
H          4.05270       -5.21430       -0.36830
H          5.75700       -4.71700       -0.69540
H          4.54140       -4.66420       -2.02910
H          2.54330       -3.15440       -2.10000
H          2.06510       -3.70630       -0.47750
H          0.04760       -3.73520        2.83540
H          0.58270       -3.77250        1.14060
H         -1.06010       -4.34560        1.56000
H         -2.06760       -2.47970        3.29820
H         -2.87600       -2.66560        1.70360
H         -2.39500       -1.04110        2.33370
H         -3.44590       -2.76900       -0.56890
H         -3.22430       -4.09280       -1.71680
H         -2.55400       -4.24890       -0.05850
H         -0.20610       -4.55730       -0.84790
H         -1.00140       -4.68810       -2.45680
H          0.32050       -3.53950       -2.25230
H         -4.63200        1.49250       -2.03270
H         -3.70300        1.99620       -3.48330
H         -3.27150        2.65180       -1.89650
H         -3.81350       -0.46500       -3.65080
H         -3.99270       -1.00800       -1.94730
H         -2.48060       -1.34470       -2.90940
H         -5.10120        0.00490        1.54500
H         -4.22250       -1.08170        0.46570
H         -5.03960        0.37660       -0.21000
H         -4.27570        2.21140        1.99270
H         -2.64660        2.66800        1.48310
H         -3.99760        2.63720        0.26660
H          4.07290        0.20650       -5.71930
H          3.21490       -1.34160       -5.43190
H          2.29640        0.19540       -5.70200
H          5.25010       -0.55680       -3.57970
H          4.31570       -0.49490       -2.06660
H          4.04090       -1.85120       -3.25170
H         -1.09720        0.67240       -4.20730
H         -1.34800       -0.71240       -5.27820
H          0.06980        0.35460       -5.55540
H          1.59640       -2.56980       -4.05420
H         -0.07760       -2.90300       -4.59480
H          0.99760       -1.90880       -5.62140
H          2.10670        5.16920       -3.48890
H          1.29310        5.14740       -1.88770
H          3.03420        5.46590       -1.98030
H          4.05940        2.12510       -2.87570
H          3.27650        3.01450       -4.23930
H          4.42960        3.82620       -3.12540
H          0.04870        3.05970       -6.08740
H          1.25830        4.03760       -5.18760
H          1.43930        2.24950       -5.32830
H         -1.53220        4.27870       -4.63870
H         -1.65010        3.81870       -2.93880
H         -0.33030        4.93930       -3.47880
H         -0.12490        3.02350        4.80100
H         -1.11450        3.18450        3.31780
H          0.49910        3.98680        3.44560
H         -0.81220        0.62100        4.20310
H         -1.21010        0.96500        2.47540
H          0.10710       -0.17700        2.90540
H          1.51510        4.67040        0.26540
H          3.03070        5.39250        0.84920
H          1.64190        5.22200        1.97700
H          2.72280        3.80110        3.60420
H          4.24940        4.16220        2.71560
H          3.78970        2.47400        3.03950
H          2.52360       -2.90150        1.68660
H          4.04030       -2.44970        2.52740
H          2.60810       -3.01280        3.45440
H          2.51060       -0.85020        4.79400
H          4.06850       -0.51670        3.96950
H          2.71650        0.67860        3.91110
H          4.81620        2.37320        0.57200
H          3.64660        1.80180       -0.67460
H          5.39620        1.45980       -0.85950
H          6.41150        0.38160        1.26620
H          5.44170       -0.88880        2.01660
H          5.17510        0.84470        2.48180
H         -0.68690        4.78020       -1.06580
H         -2.22150        4.00010       -0.62800
H         -2.18130        7.12500        1.54580
H         -1.51230        6.92560       -0.11880
H         -3.07010        6.11360        0.34360
