72
mol73-D-2
C         -0.82160       -5.81110       -2.09670
S         -1.15510       -4.02440       -2.02500
C          0.14070       -3.68590       -0.80460
Ge         0.20250       -1.79350       -0.36010
Ge         2.39920       -1.14060        0.60880
Ge         4.55310       -1.37750       -0.50530
Cl         5.13260       -0.02680       -2.06800
Cl         4.92210       -3.37170       -1.27090
Cl         6.05480       -1.00410        1.01010
Ge         2.90910       -2.79990        2.33760
Cl         1.46180       -4.39400        2.36490
Cl         4.72300       -3.91120        1.93420
Cl         3.26960       -2.09550        4.34460
Ge         2.18140        1.22760        1.21820
Ge         3.89750        2.81430        0.47460
Cl         5.76470        2.51810        1.52270
Cl         3.26440        4.82400        0.97230
Cl         4.56690        2.98610       -1.55560
Ge         2.77060        1.51890        3.55550
Cl         2.94250        3.61800        4.06020
Cl         1.48690        0.60660        5.00900
Cl         4.74240        0.71090        3.94310
Ge        -1.65690       -1.48830        1.24940
Ge        -1.57380       -2.67880        3.36390
Cl        -3.30480       -2.19290        4.57190
Cl        -1.71530       -4.81830        3.05990
Cl         0.11990       -2.31470        4.62550
Ge        -3.60150       -2.76950        0.47940
Cl        -5.07410       -3.00100        2.04490
Cl        -2.96950       -4.77770       -0.02520
Cl        -4.82860       -2.19560       -1.18320
Ge        -1.90260        0.91710        1.67400
Ge        -1.80460        1.76350        3.97100
Cl        -0.32010        3.30790        4.18940
Cl        -1.62010        0.33030        5.57290
Cl        -3.59140        2.83870        4.55280
Ge        -4.26700        1.43540        1.39470
Cl        -5.34290        0.74840       -0.32950
Cl        -5.29530        0.42910        3.01360
Cl        -4.72310        3.54630        1.58260
Ge        -0.03780        2.01380        0.44500
Ge        -0.23660        1.76030       -1.99170
Ge         1.43420        2.84110       -3.36300
Cl         2.04280        4.72670       -2.48750
Cl         3.08680        1.58310       -3.92710
Cl         0.59130        3.37830       -5.28350
Ge        -2.05790        3.11240       -2.83960
Cl        -1.39120        5.17160       -2.92160
Cl        -2.59690        2.54430       -4.86000
Cl        -3.84130        3.20370       -1.65390
Ge        -0.28480       -0.62270       -2.46560
Ge         1.14020       -1.44470       -4.24270
Cl         0.36060       -3.35300       -4.90770
Cl         1.11490       -0.12210       -5.95900
Cl         3.17850       -1.87710       -3.74000
Ge        -2.33510       -1.19570       -3.60900
Cl        -2.77730       -3.30410       -3.38130
Cl        -2.10470       -0.91410       -5.74320
Cl        -4.00500        0.08520       -3.15850
C          0.00350        3.93340        0.75470
S         -1.67270        4.61990        0.80200
C         -1.12010        6.32780        1.09690
H          0.22100       -5.99130       -2.43240
H         -1.51870       -6.27980       -2.82100
H         -0.97980       -6.26880       -1.09790
H         -0.07370       -4.25080        0.12220
H          1.12530       -4.00010       -1.19870
H          0.56780        4.40390       -0.07250
H          0.52480        4.13760        1.70870
H         -0.48910        6.67540        0.25240
H         -2.00900        6.98630        1.17580
H         -0.54510        6.38420        2.04470
