72
mol71-E-0
C         -0.78320       -6.07390       -1.28550
S         -0.07670       -4.64690       -0.40590
C         -0.75950       -3.42010       -1.55160
Ge        -0.26460       -1.61200       -1.02730
Ge         2.06240       -1.51450       -0.13490
Si         2.89220       -2.68710        1.74650
Cl         2.35280       -2.04430        3.63820
Cl         4.97590       -2.47150        1.74480
Cl         2.48000       -4.74260        1.71080
Si         3.41460       -2.73880       -1.67680
Cl         4.36820       -4.41880       -0.86600
Cl         5.00710       -1.71550       -2.54670
Cl         2.26720       -3.61630       -3.17220
Ge         2.49570        0.86720        0.31790
Si         3.38260        1.54880        2.42980
Cl         2.49000        0.99180        4.20850
Cl         3.41950        3.63830        2.55350
Cl         5.35300        0.91310        2.71880
Si         4.46860        1.52600       -0.79890
Cl         6.07070        0.27440       -0.29560
Cl         4.37800        1.49540       -2.86360
Cl         5.09090        3.44800       -0.24680
Ge        -1.95620       -0.95990        0.64040
Si        -2.15080       -2.63030        2.28680
Cl        -3.24290       -4.24840        1.52660
Cl        -3.16720       -1.94170        3.98500
Cl        -0.37180       -3.47630        2.91340
Si        -4.22240       -1.08830        0.03800
Cl        -4.98100        0.67320       -0.76160
Cl        -4.56930       -2.73720       -1.20730
Cl        -5.44610       -1.39690        1.70910
Ge        -1.41970        1.30610        1.34810
Si        -1.07550        1.35230        3.67070
Cl        -0.28110       -0.40770        4.43820
Cl         0.04470        3.03430        4.22380
Cl        -2.88310        1.53120        4.71270
Si        -3.15490        2.89390        1.42890
Cl        -3.62260        3.79610       -0.37130
Cl        -2.59630        4.48920        2.66650
Cl        -4.91950        2.08640        2.21960
Ge         0.39010        2.10790       -0.11780
Ge        -0.23680        2.08300       -2.53180
Si         1.38400        3.43470       -3.65070
Cl         2.70150        4.31950       -2.30760
Cl         2.47040        2.52590       -5.17840
Cl         0.60350        5.12210       -4.61640
Si        -2.06970        3.21290       -3.51550
Cl        -2.17690        5.24610       -3.01500
Cl        -3.97630        2.46550       -3.21800
Cl        -1.82980        3.09650       -5.59330
Ge        -0.52600       -0.29230       -3.11370
Si         0.83000       -0.80870       -4.97610
Cl         2.86860       -0.69480       -4.65490
Cl         0.44610        0.49490       -6.56970
Cl         0.44100       -2.72090       -5.73710
Si        -2.49340       -1.02020       -4.25840
Cl        -2.51310       -3.10890       -4.39760
Cl        -2.59510       -0.30450       -6.22000
Cl        -4.38350       -0.58230       -3.54670
C          0.77090        3.91110        0.50860
S         -0.35030        5.11920       -0.24490
C          0.37820        6.54710        0.61510
H         -1.89090       -6.00240       -1.29980
H         -0.49030       -7.00440       -0.75780
H         -0.39480       -6.11170       -2.32460
H         -0.39040       -3.61540       -2.57520
H         -1.86340       -3.49130       -1.54920
H          1.81810        4.16700        0.26440
H          0.64440        3.92980        1.60750
H         -0.15770        7.46720        0.30480
H          1.45050        6.64740        0.34690
H          0.27470        6.42390        1.71340
