36
mol76-E-1
C         -4.40180       -1.01240       -1.80490
S         -3.77350        0.24220       -2.96310
C         -2.03410       -0.30350       -2.89960
Ge        -0.89270        0.79540       -4.04340
Ge         0.94550        1.85960       -2.92150
Br         2.07180        0.34050       -1.56400
Br         0.17560        3.63860       -1.63440
Ge         2.47630        2.69780       -4.56090
Br         4.24540        1.20980       -4.82020
Br         3.30000        4.75980       -3.86450
Ge        -2.21970        2.46870       -5.12780
Br        -3.62270        1.44330       -6.67410
Br        -3.51340        3.63080       -3.58280
Ge        -0.76860        4.00170       -6.25360
Br        -1.70640        4.64210       -8.28370
Br        -0.43520        5.87860       -4.91940
Ge         1.32430        2.91690       -6.64450
Ge         0.89770        0.72980       -7.50240
Br        -0.64320        0.87270       -9.23930
Br         2.87850       -0.19640       -8.29650
Ge         0.01680       -0.62480       -5.73880
Br         1.71410       -1.92420       -4.82080
Br        -1.65290       -2.01270       -6.57500
C          2.38730        3.90110       -7.94020
S          2.53820        5.63840       -7.41950
C          3.55040        6.12960       -8.84990
H         -3.95720       -0.85990       -0.79960
H         -4.15600       -2.02690       -2.17280
H         -5.50410       -0.91580       -1.72940
H         -1.67790       -0.19320       -1.85530
H         -1.92960       -1.37160       -3.18220
H          1.88290        3.84520       -8.92710
H          3.39130        3.43290       -8.00720
H          3.79280        7.20890       -8.76780
H          4.49620        5.54910       -8.86520
H          2.98860        5.95810       -9.79160
