132
mol78-A-1
C          0.95110        6.04580       -2.28780
S          0.80490        4.24940       -2.53820
C          0.40920        3.88620       -0.79900
Ge         0.12540        1.96750       -0.44250
Ge         1.84900        0.65990       -1.59410
N          1.35330        0.43600       -3.41060
C          2.43850       -0.12720       -4.22540
C          0.91610        1.70930       -3.99530
N          3.58840        1.41730       -1.46310
C          3.70130        2.70620       -2.15590
C          4.64350        0.50130       -1.93140
Ge         1.82640       -1.46050       -0.38210
N          2.84860       -1.25500        1.20600
C          4.28490       -1.10110        0.95590
C          2.58980       -2.32000        2.17760
N          2.57370       -2.77850       -1.52590
C          2.93160       -4.00670       -0.80630
C          1.64670       -3.10240       -2.61300
Ge         0.25050        1.48330        1.96950
N          2.06120        1.11380        2.41920
C          2.29720        0.79120        3.83060
C          2.98260        2.15500        1.96710
N         -0.58330        2.78780        3.08080
C         -1.01140        3.96550        2.32900
C          0.21310        3.19710        4.24050
Ge        -1.01860       -0.57470        2.25400
N         -0.49470       -1.35000        3.91650
C         -1.02160       -0.58830        5.05420
C         -0.84080       -2.77060        4.06410
N         -2.88070       -0.22690        2.17100
C         -3.28580        0.94330        2.95810
C         -3.67400       -1.39850        2.54990
Ge        -0.48390       -1.91730        0.28260
Ge        -2.04940       -1.19190       -1.47450
N         -1.30220       -1.79320       -3.12210
C         -1.67970       -3.16380       -3.47860
C         -1.55940       -0.90380       -4.25380
N         -3.79280       -1.89850       -1.14480
C         -4.73950       -1.67710       -2.24770
C         -3.77960       -3.31250       -0.76440
Ge        -2.09160        1.29320       -1.32290
N         -3.37090        1.91860       -0.06450
C         -3.66130        3.34850       -0.22720
C         -4.62520        1.16300       -0.10440
N         -2.43980        2.02140       -3.05530
C         -3.75600        1.64150       -3.57230
C         -2.27500        3.47540       -3.17070
C         -0.57930       -3.79000        0.89580
S         -0.72000       -5.01660       -0.43590
C         -0.76390       -6.45140        0.68280
H         -0.01180        6.45950       -1.92200
H          1.20370        6.52600       -3.25500
H          1.75700        6.26460       -1.55660
H         -0.51370        4.43640       -0.53210
H          1.24060        4.25600       -0.17110
H          2.00520       -0.58410       -5.14000
H          2.98130       -0.92560       -3.68460
H          3.16880        0.64720       -4.54150
H          0.11910        2.15520       -3.38420
H          1.74280        2.44100       -4.07630
H          0.50000        1.53610       -5.01080
H          2.79620        3.31310       -2.01800
H          4.55710        3.27420       -1.73470
H          3.86310        2.58570       -3.24740
H          5.58370        0.72190       -1.38410
H          4.37980       -0.55640       -1.74670
H          4.85920        0.60390       -3.01450
H          4.87730       -1.24900        1.88490
H          4.65390       -1.80940        0.19060
H          4.48390       -0.06140        0.64310
H          2.87640       -3.31610        1.79630
H          3.14880       -2.13390        3.11860
H          1.52680       -2.31090        2.44990
H          3.83220       -3.84160       -0.18710
H          2.09560       -4.36370       -0.17380
H          3.20090       -4.81500       -1.52110
H          2.19680       -3.61070       -3.43270
H          0.83430       -3.76410       -2.26830
H          1.19300       -2.19120       -3.03370
H          1.46090        0.21640        4.25680
H          3.20440        0.15760        3.90930
H          2.48400        1.69840        4.44150
H          2.94940        2.22350        0.86840
H          4.02790        1.89090        2.23730
H          2.73870        3.13630        2.41740
H         -0.15540        4.62340        2.08490
H         -1.52970        3.65630        1.41060
H         -1.74190        4.54710        2.93040
H          0.37190        2.34200        4.92060
H         -0.34130        3.95420        4.83630
H          1.17800        3.64420        3.93220
H         -2.08610       -0.83470        5.25250
H         -0.43230       -0.82930        5.96430
H         -0.91840        0.49810        4.88350
H         -0.10460       -3.39690        3.53820
H         -1.85940       -2.99420        3.70520
H         -0.77710       -3.08950        5.12800
H         -3.00810        0.85400        4.02180
H         -4.38720        1.07880        2.90840
H         -2.84320        1.85600        2.52860
H         -3.65220       -1.56700        3.64660
H         -3.30990       -2.30000        2.02220
H         -4.73050       -1.24920        2.24190
H         -2.72940       -3.23750       -3.82250
H         -1.53030       -3.83730       -2.62870
H         -1.02190       -3.53100       -4.29520
H         -2.62050       -0.93360       -4.56930
H         -0.93220       -1.20900       -5.11870
H         -1.26000        0.12070       -4.00560
H         -5.60860       -2.36890       -2.18840
H         -5.17090       -0.66690       -2.17310
H         -4.27020       -1.80480       -3.23630
H         -4.77360       -3.59890       -0.35930
H         -3.55420       -3.97110       -1.62570
H         -3.06380       -3.48450        0.04710
H         -4.41020        3.53100       -1.02680
H         -4.07090        3.74780        0.72480
H         -2.74670        3.92330       -0.45740
H         -4.44050        0.10160        0.11700
H         -5.31620        1.53280        0.68320
H         -5.13710        1.27070       -1.07750
H         -3.90160        0.55870       -3.48670
H         -3.81870        1.88950       -4.65350
H         -4.57460        2.17020       -3.04380
H         -1.43150        3.82980       -2.57700
H         -2.05720        3.73170       -4.22890
H         -3.18240        4.03550       -2.86660
H         -1.44450       -3.90370        1.57510
H          0.34640       -4.01830        1.45370
H         -0.85720       -7.37730        0.07930
H         -1.63670       -6.37750        1.36460
H          0.17320       -6.50220        1.27530
