36
mol74-D-0
C         12.16220        3.58410        2.37090
S         10.67540        4.27210        1.57830
C          9.72630        2.72220        1.68360
Ge         7.96380        2.99180        0.91180
Ge         6.75670        4.65790        2.12850
F          7.77310        6.06690        2.38130
F          6.25640        3.99930        3.67710
Ge         4.82800        5.27630        0.85520
F          3.46620        5.52410        1.93520
F          5.16250        6.75730       -0.02600
Ge         6.72040        0.95290        0.98770
F          7.35780       -0.16250       -0.20890
F          6.84250        0.24300        2.58870
Ge         4.43070        1.44180        0.49410
F          3.75360        0.15950       -0.49540
F          3.52200        1.58030        1.98990
Ge         4.32220        3.51590       -0.69120
Ge         5.99870        3.45930       -2.39960
F          5.91530        1.91570       -3.23150
F          5.75990        4.76020       -3.55350
Ge         8.14470        3.68790       -1.36780
F          9.31570        2.68240       -2.20420
F          8.65270        5.36740       -1.42480
C          2.54600        3.68880       -1.48470
S          1.87120        5.37070       -1.26500
C          0.29440        5.05770       -2.12000
H         12.55730        2.73770        1.77130
H         12.93840        4.37420        2.43140
H         11.92170        3.23740        3.39750
H         10.24420        1.91960        1.11850
H          9.60920        2.41740        2.74430
H          2.58330        3.40880       -2.55790
H          1.87010        2.97770       -0.96750
H         -0.23400        4.19770       -1.65890
H          0.47800        4.85810       -3.19390
H         -0.34660        5.95850       -2.03300
