72
mol72-C-0
C         -0.02810        6.63880        1.39500
S         -0.57390        4.92130        1.64540
C          0.13320        4.31580        0.08700
Ge        -0.19770        2.40870       -0.13880
Ge        -2.32850        2.06150       -1.20320
Ge        -2.44520        3.26630       -3.26650
F         -2.07690        4.95690       -2.96930
F         -1.33080        2.61740       -4.44930
F         -4.07980        3.14650       -3.89600
Ge        -4.12020        3.03380        0.06520
F         -3.49630        3.92510        1.43930
F         -4.98590        4.15610       -0.97080
F         -5.25420        1.82130        0.62720
Ge        -2.61740       -0.30550       -1.54890
Ge        -4.48840       -1.16330       -0.32620
F         -4.56630       -2.90480       -0.53190
F         -4.38120       -0.78130        1.37640
F         -5.95800       -0.45820       -0.97890
Ge        -3.24460       -0.84300       -3.80150
F         -2.26660       -2.17450       -4.39100
F         -3.09320        0.53030       -4.87980
F         -4.92460       -1.35330       -3.80290
Ge         1.58180        1.66940       -1.59230
Ge         3.70450        2.04170       -0.54980
F          3.94020        0.99830        0.83300
F          4.97100        1.72840       -1.72480
F          3.81580        3.71890       -0.04390
Ge         1.74540        3.10100       -3.51080
F          0.72630        4.51150       -3.29060
F          3.40880        3.64310       -3.65820
F          1.30920        2.27680       -4.99470
Ge         1.26560       -0.64510       -2.18280
Ge         0.89190       -0.90430       -4.53130
F          2.36160       -0.46620       -5.38630
F          0.51860       -2.58500       -4.87420
F         -0.41560        0.11730       -5.08690
Ge         3.23810       -1.96600       -1.82420
F          2.87730       -3.36470       -0.83160
F          4.51830       -1.03540       -1.07110
F          3.81550       -2.53230       -3.38260
Ge        -0.60750       -1.48920       -0.92880
Ge        -0.17460       -1.19880        1.43480
Ge         1.87380       -2.20000        2.18150
F          3.26320       -1.49520        1.38590
F          1.86160       -3.93220        1.90620
F          2.01250       -1.93560        3.91170
Ge        -1.81820       -2.42610        2.67910
F         -2.71800       -3.46540        1.58880
F         -0.98700       -3.43750        3.84900
F         -2.92730       -1.38240        3.54580
Ge        -0.13720        1.16670        1.93770
Ge         1.78470        1.85730        3.19680
F          2.48120        3.28860        2.45870
F          3.00290        0.60320        3.31240
F          1.26420        2.26970        4.82200
Ge        -1.93580        1.68630        3.43790
F         -1.71980        0.73770        4.89950
F         -1.90370        3.38020        3.89190
F         -3.49170        1.30240        2.73630
C         -0.96900       -3.33710       -1.43080
S          0.02150       -4.48940       -0.43780
C         -0.64150       -5.98100       -1.24170
H         -0.47840        7.05110        0.46800
H          1.07900        6.68110        1.32640
H         -0.35790        7.25240        2.25810
H         -0.31780        4.85770       -0.76910
H          1.22910        4.48370        0.08930
H         -2.04650       -3.54080       -1.26660
H         -0.73290       -3.46490       -2.50680
H         -0.41500       -5.96180       -2.32810
H         -0.16580       -6.87610       -0.79140
H         -1.73910       -6.04150       -1.08740
