36
mol75-C-0
C         -3.00550       -0.45030       -4.60720
S         -2.70440        0.21890       -2.94130
C         -4.29090        1.10950       -2.79250
Ge        -4.40200        2.01750       -1.07290
Ge        -4.52770        0.47210        0.74580
Cl        -5.99230       -1.06100        0.30890
Cl        -2.58070       -0.41710        1.06590
Ge        -5.20780        1.65910        2.70810
Cl        -7.33200        1.38890        3.02050
Cl        -4.11120        0.92500        4.42300
Ge        -2.53190        3.47340       -0.72760
Cl        -0.66730        2.44570       -1.11710
Cl        -2.71700        5.18060       -2.04440
Ge        -2.53910        4.21310        1.54670
Cl        -1.90630        6.28090        1.63340
Cl        -1.19700        2.98130        2.71460
Ge        -4.75540        3.98400        2.40650
Ge        -6.28880        4.85660        0.79690
Cl        -8.24630        5.06180        1.69610
Cl        -5.58440        6.78310        0.10650
Ge        -6.39380        3.33660       -1.04580
Cl        -8.10610        2.03330       -0.81630
Cl        -6.55360        4.44530       -2.89730
C         -4.94660        4.89770        4.11080
S         -4.78430        6.69360        3.86350
C         -5.01860        7.10210        5.62130
H         -3.91560       -1.08100       -4.60750
H         -3.12070        0.37850       -5.33620
H         -2.13920       -1.07420       -4.90760
H         -5.16570        0.43710       -2.91090
H         -4.33560        1.87900       -3.58990
H         -5.94730        4.66220        4.52880
H         -4.15790        4.53340        4.80140
H         -4.22280        6.62790        6.23260
H         -6.01470        6.75300        5.96460
H         -4.96060        8.20260        5.74770
