72
mol72-E-2
C         -1.24420       -2.83520       -5.74240
S         -1.67990       -2.53180       -4.00210
C         -0.28640       -1.40920       -3.69730
Ge        -0.29670       -0.76150       -1.85940
Ge         0.83510        1.35940       -1.57790
Ge        -0.27500        3.20530       -2.63440
F         -0.39840        2.95450       -4.36600
F          0.69150        4.64730       -2.37150
F         -1.87240        3.46280       -1.96950
Ge         2.92300        1.28500       -2.75730
F          2.96780       -0.14520       -3.77280
F          4.30660        1.28620       -1.68210
F          3.02770        2.70110       -3.78980
Ge         1.06670        1.81380        0.78640
Ge         0.33720        4.00830        1.42530
F          1.74940        4.95930        1.85420
F         -0.51330        4.83880        0.13800
F         -0.69980        3.88990        2.83560
Ge         3.39610        1.87070        1.35780
F          4.16170        3.13170        0.40570
F          3.61640        2.27290        3.05090
F          4.18090        0.34520        1.01620
Ge        -2.56110       -0.55770       -1.06940
Ge        -3.73050       -2.62920       -1.32140
F         -3.07990       -3.86290       -0.26470
F         -5.42170       -2.37220       -0.92560
F         -3.61530       -3.15730       -2.99160
Ge        -3.84730        0.93260       -2.44400
F         -5.25850        0.06700       -3.02830
F         -2.91390        1.45990       -3.83080
F         -4.39720        2.33510       -1.54820
Ge        -2.49140        0.13850        1.23630
Ge        -3.84960       -1.23440        2.66010
F         -2.94830       -1.67570        4.09870
F         -4.41740       -2.67890        1.84630
F         -5.25230       -0.30210        3.15570
Ge        -3.50560        2.28400        1.55100
F         -3.31430        2.77600        3.22520
F         -5.22110        2.15220        1.20110
F         -2.80240        3.49420        0.50350
Ge        -0.21110        0.17450        2.02680
Ge         0.79520       -1.99270        1.73730
Ge         2.96430       -2.10510        2.76060
F          4.22790       -2.39400        1.58090
F          3.31540       -0.62800        3.63630
F          2.96760       -3.43660        3.90510
Ge        -0.42950       -3.65750        2.94200
F         -2.02350       -3.89590        2.26070
F         -0.56940       -3.16790        4.62200
F          0.45600       -5.17170        2.86660
Ge         0.85840       -2.48160       -0.62130
Ge        -0.04700       -4.64110       -1.14440
F         -0.86960       -5.36630        0.22270
F         -1.14860       -4.51230       -2.50330
F          1.27510       -5.69930       -1.60780
Ge         3.10180       -2.70890       -1.42520
F          3.82550       -4.12470       -0.68050
F          3.07350       -2.94640       -3.16410
F          4.07290       -1.30600       -1.04380
C         -0.37130        0.58840        3.92420
S          1.14040        1.37370        4.55130
C          0.51910        1.54690        6.25270
H         -1.26620       -1.88320       -6.31260
H         -1.98320       -3.53490       -6.18330
H         -0.23410       -3.29040       -5.80900
H         -0.36020       -0.53650       -4.37720
H          0.67170       -1.93630       -3.88210
H         -0.56630       -0.35290        4.47730
H         -1.22920        1.27720        4.06170
H          1.30180        2.02500        6.87640
H         -0.38890        2.18520        6.26400
H          0.28240        0.54850        6.67600
