60
mol77-B-2
C         -0.90080        0.19310       -6.57280
S         -1.35310        0.52710       -4.84210
C         -0.06390       -0.55330       -4.14620
Ge        -0.16670       -0.51280       -2.20730
Ge         1.41830       -2.02550       -1.25060
N          3.10020       -1.75020       -2.00440
N          0.86370       -3.77330       -1.58070
Ge         1.52520       -1.66340        1.11030
N          1.57610       -3.31000        1.98130
N          3.05290       -0.68550        1.53560
Ge        -2.35660       -1.15900       -1.51190
N         -3.55690        0.20910       -1.91180
N         -2.85830       -2.72040       -2.39650
Ge        -2.33520       -1.54140        0.84750
N         -3.88530       -0.84650        1.61290
N         -2.23410       -3.37360        1.17330
Ge        -0.42370       -0.45430        1.78220
Ge        -0.31970        1.77250        0.92170
N          0.97310        2.74510        1.84650
N         -1.98390        2.58270        1.13530
Ge         0.23070        1.69980       -1.40280
N          2.02060        2.15510       -1.64930
N         -0.85290        2.89510       -2.33460
C         -0.55570       -0.36940        3.71890
S         -0.76490       -2.04660        4.39340
C         -0.83760       -1.49630        6.12640
H          0.14600        0.51030       -6.76150
H         -1.57570        0.76680       -7.24030
H         -1.01130       -0.88900       -6.79390
H         -0.21690       -1.59780       -4.48880
H          0.94070       -0.19980       -4.45800
H          3.76290       -2.37380       -1.49230
H          3.37460       -0.76900       -1.77700
H          0.83950       -3.88850       -2.61840
H          1.61850       -4.40020       -1.22360
H          1.80620       -3.11330        2.98060
H          2.38790       -3.83310        1.58400
H          2.93600       -0.36350        2.52220
H          3.03870        0.16860        0.93670
H         -3.54110        0.32740       -2.94920
H         -4.50740       -0.14310       -1.66100
H         -2.15920       -3.45010       -2.13300
H         -3.77170       -3.01640       -1.98590
H         -3.88140        0.17890        1.41450
H         -3.78040       -0.95220        2.64660
H         -2.37820       -3.50590        2.19880
H         -3.05520       -3.80810        0.69620
H          0.75110        2.64630        2.86230
H          1.88370        2.25980        1.68950
H         -2.18150        2.59490        2.16060
H         -1.87400        3.57700        0.83570
H          2.58020        1.49710       -1.06420
H          2.14680        3.10530       -1.23520
H         -0.60410        3.85140       -1.99660
H         -0.56270        2.84300       -3.33650
H          0.37190        0.09010        4.11920
H         -1.43000        0.25920        3.98740
H         -1.69720       -0.80960        6.27290
H         -0.96920       -2.38140        6.78190
H          0.10600       -0.98150        6.40310
