72
mol72-D-0
C         -5.92230       -0.04590       -2.87660
S         -4.22820        0.54310       -2.57040
C         -3.87970       -0.68350       -1.27840
Ge        -2.07470       -0.46840       -0.57610
Ge        -2.19330       -1.39560        1.64930
Ge        -3.21780       -3.56470        1.59900
F         -2.09360       -4.84110        2.02140
F         -4.52880       -3.58600        2.76660
F         -3.89420       -3.86770        0.00930
Ge        -3.76680       -0.16670        2.97030
F         -4.01050       -1.01470        4.48840
F         -5.30140       -0.09000        2.12180
F         -3.20500        1.45410        3.30750
Ge        -0.00440       -1.42350        2.65600
Ge         0.73120       -3.65900        3.08500
F          0.63930       -4.64940        1.64530
F          2.38470       -3.61940        3.67340
F         -0.29360       -4.35980        4.32660
Ge         0.01520       -0.44330        4.84760
F          0.39920       -1.69970        6.01220
F         -1.54300        0.23820        5.27120
F          1.24270        0.80270        4.96000
Ge        -1.34890        1.83830       -0.47150
Ge        -1.04220        2.86270       -2.61910
F          0.19550        2.04970       -3.55020
F         -2.54220        2.87340       -3.52830
F         -0.56050        4.53190       -2.36470
Ge        -3.11330        3.16270        0.47140
F         -4.57980        2.20330        0.55710
F         -3.40730        4.53080       -0.58910
F         -2.71900        3.77770        2.06400
Ge         0.72380        1.94990        0.77000
Ge         2.44910        3.19510       -0.33850
F          2.69950        4.69640        0.53690
F          2.03950        3.58840       -1.99620
F          3.94420        2.27760       -0.30320
Ge         0.38210        3.23180        2.76890
F         -0.14950        4.83900        2.30320
F         -0.83230        2.50790        3.79900
F          1.87930        3.40460        3.66630
Ge         1.51900       -0.30120        1.16840
Ge         1.67010       -1.50240       -0.91970
Ge         3.20810       -0.40620       -2.39060
F          2.59810        1.14020       -2.93210
F          3.48040       -1.43420       -3.78770
F          4.73820       -0.17470       -1.56200
Ge         2.75970       -3.61510       -0.59350
F          4.07300       -3.74630       -1.75120
F          1.67550       -4.96850       -0.84620
F          3.44190       -3.69090        1.02070
Ge        -0.51500       -1.72570       -1.91020
Ge        -0.56000       -1.03590       -4.20950
F          0.97770       -0.36760       -4.72020
F         -0.90350       -2.44260       -5.20240
F         -1.82460        0.14750       -4.47850
Ge        -1.18180       -4.01900       -2.04720
F         -1.06270       -4.81310       -0.49260
F         -2.83460       -4.10540       -2.63270
F         -0.13380       -4.84200       -3.19060
C          3.32830       -0.36960        1.88910
S          3.63700        1.02270        3.01210
C          5.34760        0.52950        3.38820
H         -6.38130        0.57270       -3.67470
H         -5.90400       -1.10490       -3.20860
H         -6.53160        0.04850       -1.95370
H         -4.59840       -0.55480       -0.44400
H         -3.97950       -1.70770       -1.69200
H          3.45820       -1.32870        2.43050
H          4.04440       -0.32730        1.04360
H          5.95560        0.52310        2.45960
H          5.78600        1.25910        4.09920
H          5.36070       -0.47810        3.85330
