36
mol74-C-1
C         -2.48800        0.50640        4.51510
S         -2.94290        1.97860        3.54560
C         -3.22350        1.09360        1.97450
Ge        -3.76120        2.31110        0.54480
Ge        -6.14000        2.18620        0.32230
F         -6.89220        2.98230        1.69430
F         -6.64010        0.50420        0.26550
Ge        -6.79360        3.28600       -1.69850
F         -8.30300        4.14530       -1.44300
F         -6.98960        2.10310       -2.98090
Ge        -3.18910        4.57110        1.09160
F         -1.47340        4.83960        0.83580
F         -3.59800        4.89620        2.76760
Ge        -4.42330        6.03870       -0.33910
F         -3.42020        7.40620       -0.79280
F         -5.86090        6.60540        0.49410
Ge        -5.06860        4.82680       -2.29640
Ge        -3.18860        3.57990       -3.08520
F         -1.77970        4.62600       -3.14190
F         -3.52640        2.94930       -4.68830
Ge        -2.78460        1.76830       -1.57480
F         -1.05310        1.53290       -1.40520
F         -3.52520        0.30350       -2.19750
C         -5.68460        6.04380       -3.68000
S         -7.09110        7.01290       -3.04980
C         -7.31870        7.95420       -4.59070
H         -2.18480        0.82580        5.53290
H         -1.63810       -0.02530        4.03940
H         -3.35850       -0.17220        4.60300
H         -2.26730        0.61820        1.67510
H         -3.98220        0.29270        2.09330
H         -4.85000        6.72050       -3.95740
H         -5.99570        5.45070       -4.56490
H         -8.16610        8.65850       -4.46270
H         -7.54870        7.26410       -5.42900
H         -6.40130        8.53450       -4.82250
