72
mol73-C-2
C          0.84840        5.08220        2.96070
S          1.48760        3.69110        1.97830
C         -0.14510        3.16850        1.39110
Ge        -0.00370        1.61610        0.22830
Ge         0.25380       -0.28980        1.79100
Ge         1.78230        0.35580        3.59730
Cl         1.17630        2.28080        4.38100
Cl         3.90340        0.55720        3.35320
Cl         1.66650       -1.01260        5.26670
Ge        -1.54920       -0.77450        3.34340
Cl        -1.05990       -2.50420        4.55160
Cl        -3.47610       -1.19390        2.50440
Cl        -1.79500        0.82940        4.77760
Ge         0.75140       -2.29420        0.46380
Ge        -0.66230       -4.28260        0.68580
Cl        -2.24830       -4.24130        2.14800
Cl        -1.43200       -4.93090       -1.21790
Cl         0.44300       -6.04260        1.29260
Ge         2.69610       -3.34370        1.49020
Cl         4.43140       -2.18470        1.98800
Cl         3.42350       -5.07490        0.40730
Cl         2.04020       -4.05170        3.42900
Ge        -2.00200        1.36830       -1.23320
Ge        -3.95540        1.60440        0.22640
Cl        -3.39130        2.14570        2.23270
Cl        -5.21010        3.28660       -0.30580
Cl        -5.38820       -0.00780        0.27180
Ge        -2.78120        3.02420       -2.84180
Cl        -4.74680        2.36810       -3.47130
Cl        -3.02530        5.00700       -2.00020
Cl        -1.76720        3.29590       -4.71270
Ge        -1.65880       -0.71650       -2.48330
Ge        -1.92130       -0.70340       -4.92190
Cl        -1.30960       -2.62540       -5.70850
Cl        -0.95370        0.70260       -6.22040
Cl        -3.99150       -0.47250       -5.49950
Ge        -3.57960       -2.16960       -2.17600
Cl        -5.40340       -1.13430       -2.71770
Cl        -3.92370       -2.93200       -0.20270
Cl        -3.50150       -3.86090       -3.52630
Ge         0.59150       -1.58540       -1.91590
Ge         2.32190        0.04800       -2.53150
Ge         4.49570       -1.01480       -2.62790
Cl         6.09530        0.44670       -2.65930
Cl         4.62390       -2.12750       -4.48190
Cl         4.93470       -2.47970       -1.12600
Ge         2.38800        0.78580       -4.83180
Cl         1.31540        2.61020       -5.22300
Cl         1.85910       -0.83190       -6.17200
Cl         4.41190        1.31600       -5.38890
Ge         2.06510        1.95980       -1.05360
Ge         4.10250        2.31660        0.19620
Cl         5.27000        0.54160        0.53990
Cl         5.47020        3.55130       -0.94050
Cl         3.70870        3.45420        1.99720
Ge         2.08690        4.16510       -2.05380
Cl         3.61290        4.33010       -3.58330
Cl         2.58370        5.60300       -0.51190
Cl         0.23580        4.89510       -2.85040
C          0.84560       -3.07920       -3.13510
S          2.13940       -4.19600       -2.53320
C          1.99860       -5.34730       -3.93450
H          1.69920        5.60210        3.44660
H          0.31580        5.80060        2.30310
H          0.15910        4.70890        3.74660
H         -0.63260        3.99400        0.83960
H         -0.77440        2.89330        2.25860
H          1.14290       -2.67320       -4.12040
H         -0.10890       -3.62720       -3.24420
H          2.72380       -6.17500       -3.79590
H          2.23030       -4.82160       -4.88430
H          0.97350       -5.77050       -3.97890
