72
mol73-E-1
C         -4.16410       -4.11300       -1.70670
S         -3.23360       -3.18980       -0.44530
C         -2.44170       -2.07810       -1.63720
Ge        -1.26830       -0.81420       -0.73830
Ge         0.42910        0.13820       -2.28830
Ge        -0.78940        0.84380       -4.29330
Cl        -2.86130        0.26270       -4.21340
Cl        -0.62380        2.90530       -4.90760
Cl        -0.14930       -0.19570       -6.08140
Ge         2.08060       -1.15340       -3.52980
Cl         1.22840       -2.78750       -4.67110
Cl         2.95790        0.21530       -4.96080
Cl         3.80850       -1.95720       -2.54490
Ge         1.67700        1.79410       -0.97410
Ge         1.63780        3.93360       -2.12130
Cl         2.37130        3.71680       -4.14780
Cl         3.00830        5.33610       -1.20210
Cl        -0.26100        4.91000       -2.30560
Ge         4.12850        1.71580       -0.97340
Cl         4.94600        2.32810       -2.87850
Cl         4.88050        3.14560        0.46800
Cl         5.26750       -0.05510       -0.56640
Ge        -0.25380       -2.08040        1.10800
Ge         0.68440       -4.15980        0.29560
Cl         2.01450       -5.05580        1.75310
Cl        -0.93940       -5.55870       -0.01770
Cl         1.68130       -4.10700       -1.60120
Ge        -1.74830       -3.16300        2.66840
Cl        -0.81410       -4.93390        3.49200
Cl        -2.18860       -2.01670        4.43580
Cl        -3.51480       -3.89970        1.65370
Ge         1.22670       -0.56170        2.29410
Ge         1.08500       -0.51200        4.71100
Cl         2.93560        0.30920        5.48100
Cl         0.88900       -2.50540        5.53780
Cl        -0.42410        0.74060        5.57590
Ge         3.48440       -1.42350        2.27090
Cl         3.78060       -2.78780        3.92580
Cl         4.91610        0.16610        2.61120
Cl         3.95920       -2.65770        0.57280
Ge         0.86290        1.68400        1.36380
Ge        -1.50150        2.43110        1.57040
Ge        -1.50470        4.83830        1.11450
Cl         0.49260        5.60940        0.88460
Cl        -2.76540        5.56730       -0.47710
Cl        -2.19900        6.01590        2.79350
Ge        -2.73020        2.64530        3.66360
Cl        -4.55860        3.70010        3.17880
Cl        -1.70260        3.83270        5.15800
Cl        -3.46070        0.90770        4.68780
Ge        -2.80550        0.91810        0.14320
Ge        -4.11730        2.22080       -1.43080
Cl        -5.54860        0.97340       -2.47270
Cl        -5.33490        3.67130       -0.37970
Cl        -3.04240        3.34370       -2.90620
Ge        -4.79770       -0.17390        1.06770
Cl        -5.54750       -1.60910       -0.36940
Cl        -6.40830        1.23460        1.37530
Cl        -4.81600       -1.25820        2.91790
C          2.07720        2.84380        2.34510
S          1.34990        3.35970        3.92250
C          2.78450        4.36070        4.42160
H         -3.46400       -4.58930       -2.42440
H         -4.76110       -4.90370       -1.20810
H         -4.85210       -3.43070       -2.24820
H         -1.85480       -2.66260       -2.37010
H         -3.22010       -1.50380       -2.17420
H          3.00960        2.28090        2.53950
H          2.31330        3.73050        1.72750
H          2.57880        4.81830        5.41070
H          3.68680        3.71930        4.50290
H          2.96210        5.16830        3.68120
