36
mol74-E-2
C          8.01110        0.08210        7.98210
S          7.00390        0.07040        6.46630
C          6.58800        1.84040        6.55650
Ge         5.45650        2.31450        5.05000
Ge         6.55260        1.82160        2.98350
F          6.54900        0.08550        2.72220
F          8.20470        2.41430        3.02570
Ge         5.35430        2.90450        1.21910
F          6.10710        4.45140        0.86940
F          5.38830        1.89830       -0.21860
Ge         3.41790        1.07230        5.14050
F          2.40760        1.70450        6.42970
F          3.76870       -0.62240        5.43520
Ge         2.29040        1.31000        3.04370
F          2.61330       -0.09800        2.04610
F          0.56300        1.45750        3.31930
Ge         3.10380        3.27920        1.94520
Ge         3.14920        5.05160        3.55000
F          3.41920        6.58180        2.73290
F          1.61720        5.09800        4.40640
Ge         4.92460        4.64440        5.10150
F          4.41570        5.10060        6.71860
F          6.33970        5.57450        4.63800
C          1.98470        3.82760        0.44140
S          0.87510        2.48210       -0.09780
C          0.07900        3.41740       -1.44210
H          8.86470        0.78220        7.86780
H          8.40580       -0.93880        8.16230
H          7.39010        0.38550        8.85070
H          7.51350        2.45140        6.51380
H          6.03990        2.05640        7.49710
H          2.62280        4.18040       -0.39490
H          1.35570        4.67770        0.77590
H         -0.36130        4.35870       -1.05300
H          0.81740        3.64410       -2.23590
H         -0.73090        2.79870       -1.87970
