48
mol79-D-0
C         -2.91200        3.35120        4.69040
S         -1.28130        2.55200        4.54320
C         -0.66500        3.62790        3.20440
Ge         1.14120        3.10190        2.70680
Ge         1.83950        4.41040        0.83370
O          2.16560        6.08590        1.36670
O          0.55690        4.41110       -0.41250
Ge         3.83540        3.45570       -0.07090
O          3.42180        2.39450       -1.45010
O          4.92700        4.76340       -0.61620
Ge         2.65020        3.50160        4.51590
O          2.42810        2.24360        5.76740
O          2.33940        5.11570        5.22060
Ge         4.88860        3.39890        3.67860
O          5.93070        2.58190        4.88100
O          5.49790        5.05160        3.36920
Ge         4.89240        2.15680        1.63520
Ge         3.59330        0.17940        1.96170
O          4.10360       -0.61970        3.47790
O          3.83230       -0.93220        0.58140
Ge         1.28440        0.78810        2.11590
O          0.49720       -0.21490        3.36990
O          0.48430        0.52600        0.53850
C          6.69790        1.66200        1.10240
S          7.67710        3.16150        0.74690
C          9.21640        2.29260        0.30950
H         -3.53260        2.77780        5.40890
H         -2.79030        4.38780        5.06720
H         -3.42520        3.37030        3.70730
H         -0.63050        4.67200        3.57670
H         -1.31760        3.60140        2.30730
H          2.98180        6.01410        1.92260
H         -0.24830        4.74030        0.06030
H          2.87580        2.96510       -2.04740
H          5.54160        4.32390       -1.25600
H          1.47850        2.32350        6.03510
H          2.40790        5.73850        4.45400
H          5.83250        3.12400        5.70360
H          5.35160        5.53390        4.22130
H          3.93320        0.05500        4.18250
H          3.18200       -1.66270        0.73560
H          0.94580        0.04610        4.21310
H          0.96300        1.12870       -0.08460
H          6.63030        1.05810        0.17470
H          7.15770        1.03410        1.89340
H         10.00350        3.04170        0.08710
H          9.05500        1.66400       -0.59080
H          9.55440        1.65940        1.15340
