72
mol70-A-1
C         -4.40270       -1.45880        3.41340
S         -3.67480       -0.76360        1.89770
C         -1.96730       -0.83000        2.51470
Ge        -0.73540       -0.15030        1.17110
Ge        -1.37080        2.08330        0.50870
Si        -1.61270        3.52610        2.30950
F         -0.55780        3.15400        3.56110
F         -1.35610        5.11190        1.79890
F         -3.18710        3.39410        2.89860
Si        -3.52080        2.12420       -0.34490
F         -4.41170        0.85000        0.30550
F         -3.50280        2.02740       -2.02220
F         -4.25490        3.57890        0.08840
Ge         0.21420        2.89990       -1.11060
Si         1.43580        4.66780       -0.25330
F          1.50680        4.59140        1.42360
F          2.98940        4.65080       -0.90640
F          0.68120        6.11380       -0.68080
Si        -0.82000        3.94350       -2.90640
F         -1.13470        2.87350       -4.16090
F         -2.25720        4.65800       -2.39120
F          0.20410        5.14750       -3.49330
Ge         1.55340       -0.19940        1.95270
Si         2.04970        1.20610        3.72760
F          0.98780        0.93090        5.00600
F          3.61720        0.86780        4.24820
F          1.98530        2.81970        3.27420
Si         2.03720       -2.26280        2.90000
F          2.68950       -2.02500        4.43640
F          0.62400       -3.16420        3.05970
F          3.15670       -3.11830        1.98020
Ge         2.98460        0.36960        0.10250
Si         4.39070       -1.37260       -0.47470
F          5.44760       -1.66740        0.80530
F          5.28890       -0.93280       -1.83170
F          3.52470       -2.77350       -0.79860
Si         4.55900        1.96920        0.68290
F          5.35430        2.49150       -0.70860
F          3.86890        3.29040        1.45570
F          5.68350        1.26740        1.72460
Ge         1.65720        1.08360       -1.78130
Ge         0.36140       -0.80200       -2.56670
Si        -1.07280       -0.38010       -4.33810
F         -1.71280       -1.84910       -4.86220
F         -2.34550        0.61160       -3.87930
F         -0.23220        0.32640       -5.61550
Si         1.75410       -2.39500       -3.52150
F          3.31010       -1.77200       -3.68180
F          1.17800       -2.78140       -5.05820
F          1.79790       -3.80630       -2.60630
Ge        -0.93230       -1.63890       -0.71720
Si        -3.15080       -1.98370       -1.29500
F         -3.23800       -3.30300       -2.34080
F         -3.82320       -0.65020       -2.06240
F         -4.03660       -2.32960        0.09690
Si        -0.33580       -3.79900       -0.14780
F          1.30790       -3.91310        0.17290
F         -1.21450       -4.27670        1.20910
F         -0.71460       -4.82540       -1.43060
C          2.92530        1.69240       -3.12500
S          2.05210        2.19110       -4.63820
C          3.56740        2.65130       -5.53380
H         -5.50270       -1.52600        3.28820
H         -4.17890       -0.80210        4.27980
H         -3.99920       -2.47610        3.59830
H         -1.69280       -1.87930        2.74540
H         -1.87110       -0.21420        3.43170
H          3.48620        2.55650       -2.71410
H          3.63200        0.86790       -3.34900
H          4.09630        3.46530       -4.99550
H          4.23480        1.77000       -5.63250
H          3.29360        3.00970       -6.54720
