60
mol77-E-0
C          1.09210        1.02700       -4.32970
S          0.45380        1.28370       -2.64380
C          0.82230        3.06980       -2.56520
Ge         0.27300        3.78970       -0.84270
Ge        -2.07350        3.51270       -0.47530
N         -3.02720        4.05990       -1.97980
N         -2.44290        1.72210       -0.11330
Ge        -2.71670        4.84650        1.40090
N         -3.91620        3.88990        2.45870
N         -3.52140        6.41510        0.79790
Ge         1.43900        2.69900        0.93930
N          1.22640        0.85290        0.79870
N          3.25140        3.12380        0.85750
Ge         0.53500        3.43330        3.02810
N         -0.54810        2.09900        3.74880
N          1.92520        3.81840        4.20730
Ge        -0.77100        5.40090        2.67350
Ge         0.53350        6.95670        1.42270
N          2.20720        7.14480        2.21950
N         -0.33320        8.60560        1.38290
Ge         0.77780        6.12660       -0.80480
N         -0.40520        7.02950       -1.92580
N          2.52480        6.40260       -1.39110
C         -1.26590        6.20010        4.37330
S         -2.11900        4.96310        5.40050
C         -2.37550        6.09390        6.80300
H          2.18310        1.22880       -4.35650
H          0.57000        1.69410       -5.04420
H          0.91400       -0.02660       -4.62730
H          0.32510        3.64240       -3.37540
H          1.91820        3.20860       -2.66410
H         -2.82020        5.07390       -2.11510
H         -4.03950        3.99010       -1.73350
H         -1.78350        1.42710        0.64050
H         -2.18370        1.18070       -0.96710
H         -4.71350        3.62300        1.83940
H         -4.29490        4.56070        3.16360
H         -4.40390        6.13340        0.31590
H         -3.79880        6.95510        1.64760
H          1.82780        0.54160        0.00410
H          1.63760        0.43810        1.66420
H          3.70880        2.63490        1.65890
H          3.32760        4.14680        1.04890
H         -1.34260        1.96700        3.08440
H          0.01040        1.21690        3.73190
H          1.48210        4.10630        5.10800
H          2.42240        2.91810        4.38820
H          2.62190        6.18830        2.27230
H          2.03590        7.45030        3.20340
H          0.20590        9.21080        0.72430
H         -1.26690        8.44160        0.94480
H         -1.34150        6.98990       -1.46510
H         -0.47570        6.46650       -2.80260
H          3.14960        5.90840       -0.71660
H          2.71740        7.42360       -1.28570
H         -1.93460        7.06450        4.18000
H         -0.34390        6.54670        4.88460
H         -2.90730        5.55230        7.61180
H         -1.39790        6.44860        7.19080
H         -2.99140        6.96110        6.48610
