72
mol73-B-0
C          1.93780        3.10900       -4.71040
S          1.62560        1.49060       -3.94080
C          1.23100        2.18030       -2.31230
Ge         0.79790        0.77050       -1.04450
Ge        -0.54590       -1.04030       -2.09600
Ge         0.15950       -2.39150       -3.99690
Cl         1.60300       -3.95940       -3.75090
Cl         0.82990       -1.22210       -5.69450
Cl        -1.59870       -3.47810       -4.64390
Ge        -2.35170        0.06850       -3.32560
Cl        -4.38510       -0.46760       -2.84360
Cl        -2.13040        2.21030       -3.30860
Cl        -2.29100       -0.32470       -5.45380
Ge        -1.08690       -2.60630       -0.28450
Ge        -0.65210       -4.99880       -0.60510
Cl         1.22540       -5.79360       -1.27030
Cl        -1.01130       -6.03810        1.25980
Cl        -2.02200       -5.87400       -2.02990
Ge        -3.48970       -2.94420       -0.19760
Cl        -4.23290       -3.57810       -2.13070
Cl        -4.00010       -4.57390        1.13420
Cl        -4.69520       -1.25890        0.35000
Ge        -0.44730        1.93470        0.75410
Ge        -2.55170        3.01340        0.20320
Cl        -4.09510        1.77990       -0.62730
Cl        -2.24450        4.67650       -1.14950
Cl        -3.42390        3.91280        1.97000
Ge         0.65030        4.07540        1.23240
Cl        -0.62580        5.38540        2.38480
Cl         2.51150        4.25560        2.28250
Cl         1.01650        5.11340       -0.63180
Ge        -0.80120        0.33800        2.58470
Ge        -0.09600        1.45730        4.63100
Cl        -1.51090        3.06530        4.95130
Cl        -0.18150        0.19170        6.38880
Cl         1.78830        2.47820        4.72750
Ge        -3.07130       -0.10090        3.39490
Cl        -4.69180        1.03580        2.53670
Cl        -3.54130       -2.20190        3.35230
Cl        -3.31280        0.32190        5.50450
Ge         0.08010       -1.83860        1.76250
Ge         2.51060       -1.79490        1.39870
Ge         3.68380       -1.71930        3.51580
Cl         2.84010       -0.49210        5.05740
Cl         5.76380       -1.17080        3.25370
Cl         3.66100       -3.70790        4.37390
Ge         3.56680       -3.84930        0.68890
Cl         2.61120       -5.56150        1.60960
Cl         5.61220       -3.92100        1.39530
Cl         3.81340       -4.04560       -1.44010
Ge         2.96620       -0.02910       -0.20750
Ge         4.45590        1.60680        0.76440
Cl         4.32430        1.78420        2.90530
Cl         4.29470        3.50260       -0.27130
Cl         6.51570        1.00370        0.48060
Ge         4.45050       -0.54160       -2.05090
Cl         5.22970        1.32270       -2.83120
Cl         3.58500       -1.48770       -3.76850
Cl         6.15380       -1.71190       -1.39930
C         -0.21640       -3.27090        3.04420
S          0.04480       -2.68900        4.74020
C         -0.33100       -4.29690        5.50330
H          2.77810        3.62010       -4.19560
H          1.02520        3.73870       -4.65770
H          2.20840        2.95630       -5.77500
H          0.37410        2.87520       -2.39150
H          2.10880        2.73260       -1.92710
H         -1.24700       -3.65560        2.92910
H          0.49920       -4.08510        2.82300
H         -1.36650       -4.60650        5.24990
H         -0.24300       -4.20320        6.60490
H          0.38860       -5.06430        5.14910
