132
mol78-D-1
C          3.23240       -5.41640       -0.72860
S          1.98070       -4.22880       -0.15130
C          2.69510       -2.80880       -1.04820
Ge         1.67640       -1.13910       -0.76870
Ge        -0.66000       -1.63380       -0.22360
N         -0.68850       -2.23340        1.58270
C         -0.16070       -3.59360        1.73460
C         -2.01610       -2.14980        2.19900
N         -1.35240       -2.93770       -1.42990
C         -2.58530       -3.57720       -0.96200
C         -0.37380       -3.96350       -1.79080
Ge        -1.87090        0.50710       -0.52060
N         -2.60370        0.61660       -2.27420
C         -3.57690        1.70070       -2.44040
C         -3.17510       -0.64760       -2.74280
N         -3.19480        0.67370        0.83750
C         -4.40190       -0.11550        0.58000
C         -3.55110        2.06400        1.11840
Ge         1.64410        0.06900       -2.90060
N          3.32650        0.15840       -3.78100
C          3.29910       -0.11850       -5.22030
C          4.35920       -0.63260       -3.11970
N          0.33130       -0.89270       -3.89020
C         -0.45910       -0.06090       -4.79940
C          0.86990       -2.06120       -4.59850
Ge         0.99850        2.39450       -2.48480
N          2.51240        3.53050       -2.24690
C          2.18170        4.95430       -2.38260
C          3.62690        3.20100       -3.14480
N         -0.05320        2.92280       -3.97960
C          0.75320        3.14760       -5.18370
C         -0.92490        4.07000       -3.72710
Ge        -0.24940        2.36110       -0.37370
Ge         1.36050        2.09090        1.47890
N          0.55910        1.86570        3.18650
C         -0.11850        3.05960        3.70080
C         -0.37490        0.74160        3.17020
N          2.65600        3.47510        1.52970
C          2.12260        4.79080        1.17980
C          3.34210        3.53030        2.82540
Ge         2.65700        0.05230        1.11440
N          2.48470       -1.00310        2.68960
C          3.02710       -2.35720        2.56570
C          3.00230       -0.34870        3.89660
N          4.45730        0.37640        0.59720
C          4.59370        1.66320       -0.08750
C          5.43450        0.27010        1.68380
C         -1.19710        4.10300       -0.32820
S         -1.19760        4.93620        1.28490
C         -2.15370        6.37750        0.71780
H          3.20810       -5.48790       -1.83590
H          3.00880       -6.41430       -0.29930
H          4.24200       -5.09920       -0.39380
H          3.73380       -2.66570       -0.70500
H          2.73160       -3.05340       -2.12310
H          0.16590       -3.74400        2.78520
H          0.71700       -3.75430        1.09520
H         -0.91620       -4.36780        1.49450
H         -1.98110       -2.54030        3.23930
H         -2.77060       -2.73010        1.63580
H         -2.33200       -1.10090        2.28430
H         -3.31750       -2.82620       -0.64270
H         -3.05590       -4.13450       -1.79990
H         -2.39730       -4.29030       -0.13690
H         -0.03600       -4.53900       -0.90720
H         -0.81350       -4.67330       -2.52450
H          0.48030       -3.49720       -2.29780
H         -4.58580        1.42040       -2.08050
H         -3.65530        1.95770       -3.51810
H         -3.25290        2.60860       -1.92180
H         -3.70900       -0.50380       -3.70790
H         -3.89130       -1.06580       -2.01080
H         -2.36330       -1.36000       -2.96180
H         -5.05380       -0.10890        1.47970
H         -4.14120       -1.16590        0.39930
H         -4.98470        0.27960       -0.27140
H         -4.28220        2.11160        1.95410
H         -2.65920        2.60890        1.46340
H         -3.99810        2.55870        0.23430
H          4.17880        0.36230       -5.69750
H          3.35320       -1.20710       -5.43150
H          2.40290        0.31130       -5.69680
H          5.35350       -0.39330       -3.55390
H          4.40430       -0.36570       -2.04890
H          4.17070       -1.71730       -3.24820
H         -1.01390        0.69900       -4.22940
H         -1.22390       -0.68160       -5.31450
H          0.17200        0.41930       -5.56940
H          1.75030       -2.48340       -4.07950
H          0.08920       -2.84920       -4.63830
H          1.15100       -1.82210       -5.64640
H          2.08150        5.25990       -3.44270
H          1.25410        5.20560       -1.84930
H          2.98840        5.56390       -1.92300
H          4.09650        2.25490       -2.83770
H          3.30620        3.13860       -4.20080
H          4.43060        3.96600       -3.06930
H          0.09500        3.12780       -6.07810
H          1.27410        4.12460       -5.15880
H          1.49650        2.34230       -5.31330
H         -1.52600        4.29830       -4.63370
H         -1.64890        3.82070       -2.93890
H         -0.34970        4.97540       -3.45700
H         -0.17620        2.99150        4.80740
H         -1.15570        3.14340        3.31660
H          0.43820        3.98040        3.46630
H         -0.80400        0.57960        4.18250
H         -1.19380        0.92990        2.45420
H          0.14470       -0.18620        2.88650
H          1.46730        4.71480        0.30160
H          2.96090        5.46540        0.90560
H          1.56620        5.25390        2.01900
H          2.66400        3.84320        3.64380
H          4.19010        4.24630        2.77250
H          3.76550        2.54540        3.07750
H          2.63280       -2.84500        1.66660
H          4.13140       -2.36670        2.52530
H          2.70380       -2.96990        3.43410
H          2.54560       -0.82200        4.79130
H          4.10300       -0.44640        3.98420
H          2.72500        0.71880        3.92360
H          4.81630        2.48940        0.61890
H          3.67110        1.90310       -0.64340
H          5.42950        1.60200       -0.81510
H          6.44960        0.52800        1.31050
H          5.50180       -0.77040        2.04090
H          5.19210        0.95250        2.51860
H         -0.72440        4.78700       -1.04890
H         -2.24510        3.96890       -0.63210
H         -2.29480        7.07460        1.56900
H         -1.60640        6.90490       -0.09100
H         -3.14970        6.05420        0.34990
