36
mol75-E-0
C          2.59080        3.60080        2.93890
S          2.63090        1.94070        3.68340
C          0.85830        1.58580        3.43800
Ge         0.37860       -0.18380        4.11300
Ge        -1.19550        0.02190        5.90400
Cl        -0.51970        1.46360        7.36890
Cl        -3.09870        0.65660        5.09310
Ge        -1.45050       -2.11250        6.95210
Cl        -3.50450       -2.36100        7.58750
Cl        -0.12840       -2.24890        8.65980
Ge        -0.69430       -1.38160        2.34400
Cl         0.80480       -2.07300        0.94490
Cl        -2.09720       -0.07940        1.33440
Ge        -1.85970       -3.25530        3.26640
Cl        -1.70460       -4.94980        1.92970
Cl        -3.93980       -2.74160        3.57190
Ge        -0.86010       -3.79860        5.36590
Ge         1.51060       -3.77420        5.09190
Cl         2.03100       -4.89530        3.31550
Cl         2.44830       -4.66520        6.82680
Ge         2.23570       -1.50710        4.85670
Cl         2.93870       -0.79130        6.77430
Cl         3.83910       -1.43380        3.40400
C         -1.41910       -5.56000        5.96610
S         -3.23680       -5.64850        5.99200
C         -3.28830       -7.37000        6.57970
H          2.30020        3.53380        1.87000
H          3.60110        4.05280        3.00900
H          1.87370        4.24450        3.48310
H          0.65260        1.60240        2.34830
H          0.21890        2.35610        3.91690
H         -1.01330       -6.31860        5.26500
H         -1.01240       -5.73600        6.98360
H         -4.34660       -7.68490        6.68480
H         -2.78550       -8.03770        5.84930
H         -2.78960       -7.45080        7.56800
