72
mol71-D-1
C         -1.66580        6.32930       -0.32570
S         -0.73550        4.89280        0.29060
C         -1.86950        3.67160       -0.42130
Ge        -1.29080        1.85580       -0.02570
Ge         1.18080        1.95720       -0.23660
Si         1.75020        3.32080       -2.11460
Cl         0.68660        5.12260       -2.04390
Cl         3.77500        3.84040       -2.14820
Cl         1.44430        2.67420       -4.05340
Si         2.40180        3.34820        1.22900
Cl         4.45980        3.19310        0.87210
Cl         2.16420        2.94960        3.24310
Cl         1.95770        5.37660        0.95470
Ge         2.03590       -0.34630       -0.07160
Si         3.51860       -0.61320       -1.89750
Cl         4.25500       -2.56470       -2.11050
Cl         2.88570       -0.04840       -3.78520
Cl         5.16340        0.63700       -1.55130
Si         3.69290       -0.93000        1.54680
Cl         4.42110        0.61270        2.74270
Cl         3.06000       -2.49500        2.76030
Cl         5.45640       -1.73050        0.74800
Ge        -2.01420        1.13180        2.24890
Si        -4.24380        0.99000        3.03140
Cl        -4.15830        0.68640        5.10230
Cl        -5.43260       -0.57120        2.37430
Cl        -5.36700        2.73000        2.70400
Si        -1.45710        2.92670        3.72330
Cl        -0.69750        4.56110        2.68690
Cl        -3.09170        3.79780        4.70230
Cl        -0.19030        2.47530        5.31440
Ge        -1.05170       -1.11290        2.56380
Si         0.20630       -1.14770        4.56130
Cl         1.89470        0.04440        4.57380
Cl         0.82410       -3.08110        5.07830
Cl        -0.94440       -0.49640        6.18560
Si        -2.42590       -2.91680        3.31770
Cl        -1.34950       -4.71160        3.26480
Cl        -3.05890       -2.67510        5.29550
Cl        -4.19220       -3.40380        2.36170
Ge         0.04630       -1.76290        0.43430
Ge        -1.58330       -1.81640       -1.41200
Si        -3.48050       -3.18180       -1.18470
Cl        -5.12150       -2.21060       -0.35910
Cl        -3.00790       -4.94790       -0.16100
Cl        -4.20680       -3.80570       -3.04700
Si        -0.72250       -3.06560       -3.21110
Cl         1.28080       -2.76840       -3.62540
Cl        -0.85370       -5.11110       -2.77830
Cl        -1.79900       -2.73730       -4.97890
Ge        -2.26850        0.48290       -1.82180
Si        -1.80280        1.06530       -4.04880
Cl        -1.69930        3.14650       -4.26770
Cl        -0.13500        0.10870       -4.83690
Cl        -3.33390        0.45410       -5.33990
Si        -4.56650        0.94590       -2.03020
Cl        -5.59330        1.18290       -0.25190
Cl        -5.56110       -0.51540       -3.15580
Cl        -4.83250        2.77410       -3.01800
C          0.54020       -3.62520        0.71120
S          1.86410       -4.12930       -0.41870
C          1.94710       -5.83470        0.20860
H         -1.14660        7.25770       -0.01130
H         -1.71700        6.30340       -1.43430
H         -2.69150        6.32980        0.09860
H         -2.87870        3.81470        0.00870
H         -1.92510        3.80460       -1.51720
H          0.86720       -3.76250        1.75820
H         -0.35380       -4.25110        0.53020
H          0.97300       -6.34460        0.05640
H          2.73210       -6.38640       -0.34790
H          2.20580       -5.83180        1.28800
