48
mol79-E-2
C         -1.60650       -4.78370        6.51810
S         -1.53150       -4.53960        4.71510
C         -3.32440       -4.71490        4.41890
Ge        -3.70780       -4.51320        2.52170
Ge        -6.00760       -4.94390        2.03790
O         -6.52140       -6.45810        2.83870
O         -7.00450       -3.57890        2.62160
Ge        -6.25630       -5.17210       -0.32880
O         -7.77850       -4.39150       -0.85010
O         -6.28770       -6.90710       -0.76090
Ge        -3.17520       -2.29940        1.79090
O         -3.90650       -1.10080        2.89850
O         -1.39850       -2.09660        1.76930
Ge        -4.04340       -1.98020       -0.41480
O         -5.59580       -1.09610       -0.33330
O         -2.86250       -1.04570       -1.37930
Ge        -4.40180       -4.12410       -1.41140
Ge        -2.45270       -5.45470       -1.03400
O         -2.52250       -6.92930       -2.04380
O         -0.99180       -4.50740       -1.44320
Ge        -2.38210       -6.06330        1.27810
O         -0.69260       -6.01210        1.86260
O         -3.04560       -7.71080        1.48840
C         -4.77680       -3.99640       -3.31660
S         -3.42950       -3.09830       -4.15820
C         -4.14860       -3.20340       -5.82890
H         -2.27470       -4.03130        6.98170
H         -0.58800       -4.66650        6.94120
H         -1.97490       -5.80500        6.74780
H         -3.92290       -3.98160        4.99820
H         -3.63270       -5.73520        4.72580
H         -5.86220       -7.13300        2.53760
H         -6.61590       -2.78230        2.17980
H         -7.76680       -4.45970       -1.83780
H         -5.41430       -7.25530       -0.44960
H         -3.69260       -0.22390        2.49150
H         -1.09900       -2.44130        2.64790
H         -5.38740       -0.27530        0.17950
H         -2.07100       -1.63740       -1.44240
H         -2.65890       -6.59290       -2.96490
H         -1.10860       -4.26860       -2.39670
H         -0.19620       -6.59890        1.23840
H         -2.55400       -8.26270        0.82970
H         -4.82830       -5.02470       -3.72900
H         -5.76460       -3.51360       -3.46650
H         -5.18010       -2.79570       -5.83410
H         -4.16450       -4.26060       -6.16590
H         -3.52470       -2.61180       -6.52950
