36
mol74-B-0
C         -2.31310        8.84610       -3.70100
S         -2.79890        7.90940       -2.21820
C         -2.73470        6.28850       -3.04470
Ge        -3.20780        4.89690       -1.77410
Ge        -1.64510        4.85600        0.03610
F         -1.44040        6.47620        0.68070
F         -0.10270        4.24960       -0.54320
Ge        -2.48180        3.41260        1.75100
F         -3.17090        4.37540        3.04720
F         -1.17530        2.42170        2.37820
Ge        -5.40260        5.27920       -0.90700
F         -6.51820        5.56320       -2.23260
F         -5.37230        6.67910        0.15210
Ge        -6.09760        3.35310        0.33060
F         -6.85810        3.87450        1.82460
F         -7.23700        2.41640       -0.62120
Ge        -4.17930        2.00890        0.82180
Ge        -3.35870        1.05400       -1.21030
F         -1.77760        0.34790       -0.92140
F         -4.46850       -0.18670       -1.76810
Ge        -3.17820        2.77180       -2.86530
F         -1.67390        2.58320       -3.75050
F         -4.53630        2.66840       -3.97310
C         -4.60840        0.57680        2.06690
S         -5.29710        1.27980        3.60420
C         -5.54700       -0.31630        4.44650
H         -2.27580        9.92600       -3.45070
H         -1.30870        8.52220       -4.04490
H         -3.05580        8.69060       -4.51100
H         -1.70980        6.09350       -3.42310
H         -3.45610        6.26230       -3.88760
H         -5.30190       -0.14000        1.58030
H         -3.67030        0.03900        2.31320
H         -6.17060       -0.98990        3.82390
H         -4.56580       -0.79490        4.64580
H         -6.06310       -0.13930        5.41210
