36
mol75-A-2
C         -4.18740        1.97300       -4.23410
S         -3.31910        1.90500       -2.63620
C         -2.26790        0.49480       -3.10410
Ge        -1.09850        0.03270       -1.62260
Ge         0.45500       -1.66650       -2.26300
Cl         2.00130       -0.79470       -3.50110
Cl        -0.58020       -3.22120       -3.35540
Ge         1.43530       -2.57830       -0.28140
Cl         3.52600       -3.01610       -0.62780
Cl         0.38360       -4.38390        0.28240
Ge        -2.41640       -0.78620        0.19310
Cl        -4.09710        0.53630        0.52310
Cl        -3.12350       -2.77490       -0.28450
Ge        -1.05260       -0.86560        2.15610
Cl        -1.36370        0.92280        3.33400
Cl        -1.56760       -2.61540        3.32090
Ge         1.23440       -0.96520        1.47030
Ge         1.85270        1.17490        0.60850
Cl         2.09260        2.57260        2.24290
Cl         3.71140        0.98930       -0.48410
Ge         0.12670        1.93780       -0.86090
Cl        -1.21040        3.26130        0.20840
Cl         1.01570        2.98180       -2.53540
C          2.39690       -1.41430        2.96110
S          2.05860       -3.11670        3.50870
C          3.30440       -3.09110        4.83490
H         -4.72070        1.01740       -4.41940
H         -4.92790        2.79830       -4.20850
H         -3.46380        2.16480       -5.05360
H         -2.89630       -0.38610       -3.35080
H         -1.64110        0.76390       -3.97960
H          3.45160       -1.32690        2.62680
H          2.20690       -0.70060        3.78940
H          3.29980       -4.07100        5.35460
H          3.06400       -2.29390        5.56880
H          4.31350       -2.91620        4.40700
