72
mol72-E-0
C         -0.54860       -1.45320       -6.27000
S         -0.57130       -0.33080       -4.83810
C         -0.41320       -1.65850       -3.61050
Ge        -0.38750       -0.93960       -1.79950
Ge         0.74040        1.19480       -1.62480
Ge        -0.40000        2.99400       -2.72850
F         -0.55890        2.67540       -4.44600
F          0.56530        4.44870       -2.54260
F         -1.98420        3.27140       -2.04030
Ge         2.80320        1.08210       -2.84470
F          2.83300       -0.38650       -3.80450
F          4.20920        1.13030       -1.80010
F          2.87970        2.45720       -3.93350
Ge         1.01990        1.74190        0.71450
Ge         0.29420        3.95700        1.28290
F          1.71090        4.92910        1.64430
F         -0.58700        4.73350       -0.01730
F         -0.71220        3.88990        2.71860
Ge         3.36050        1.82960        1.23350
F          4.10020        3.05530        0.21700
F          3.61480        2.29830        2.90460
F          4.14490        0.29480        0.93490
Ge        -2.63560       -0.71340       -0.96990
Ge        -3.80080       -2.79750       -1.11610
F         -3.12250       -3.98660       -0.02640
F         -5.48440       -2.53140       -0.69470
F         -3.71860       -3.38990       -2.76660
Ge        -3.95730        0.71740       -2.37380
F         -5.37660       -0.17550       -2.89370
F         -3.05580        1.19360       -3.79960
F         -4.49440        2.15170       -1.52170
Ge        -2.52030        0.07240        1.30490
Ge        -3.84190       -1.24890        2.80970
F         -2.90850       -1.63040        4.24480
F         -4.42030       -2.72610        2.06500
F         -5.23810       -0.30310        3.29840
Ge        -3.53730        2.22490        1.55750
F         -3.31280        2.78240        3.20680
F         -5.25920        2.07310        1.24950
F         -2.86180        3.39580        0.44890
Ge        -0.22400        0.14760        2.04470
Ge         0.78570       -2.02560        1.81840
Ge         2.97640       -2.09010        2.79880
F          4.21600       -2.42010        1.60460
F          3.33930       -0.57860        3.60870
F          3.00990       -3.37580        3.99390
Ge        -0.40580       -3.64660        3.11270
F         -2.01280       -3.91720        2.47530
F         -0.51240       -3.09230        4.77510
F          0.48470       -5.15930        3.07750
Ge         0.80120       -2.60590       -0.52020
Ge        -0.10530       -4.78740       -0.93950
F         -0.89560       -5.46170        0.47200
F         -1.23600       -4.71570       -2.27860
F          1.21140       -5.85810       -1.38940
Ge         3.02810       -2.85610       -1.36230
F          3.77380       -4.23910       -0.57860
F          2.96410       -3.16140       -3.08960
F          4.00080       -1.43590       -1.05650
C         -0.34590        0.63450        3.92750
S          1.17510        1.44930        4.49120
C          0.58920        1.68640        6.19750
H          0.40750       -2.01620       -6.29820
H         -0.64060       -0.85520       -7.19960
H         -1.40090       -2.16190       -6.21280
H          0.53370       -2.20920       -3.78270
H         -1.26620       -2.36140       -3.70100
H         -0.52490       -0.28520        4.52080
H         -1.20380        1.32510        4.05640
H          1.38280        2.19140        6.78520
H         -0.32120        2.32140        6.20330
H          0.36600        0.70440        6.66430
