132
mol78-B-2
C         -3.96950       -1.64630        4.68460
S         -2.34450       -1.87070        3.89710
C         -2.63490       -0.63160        2.59190
Ge        -1.11960       -0.40900        1.33690
Ge        -0.13550       -2.63830        1.00570
N         -1.42500       -4.03920        0.87420
C         -2.78220       -3.55780        1.12030
C         -1.15720       -5.20120        1.72810
N          1.05830       -2.85250        2.47370
C          0.38410       -2.95220        3.77680
C          2.03900       -3.92910        2.30690
Ge         1.07060       -2.54520       -1.13590
N         -0.10030       -2.86340       -2.59330
C          0.61130       -3.32250       -3.79260
C         -1.15410       -3.81940       -2.24150
N          2.47290       -3.82820       -1.08510
C          3.41200       -3.74500       -2.20980
C          1.95660       -5.19450       -0.95480
Ge        -1.91940        0.48520       -0.80640
N         -3.08650        1.97780       -0.62340
C         -3.54080        2.47720       -1.92570
C         -4.23710        1.74970        0.25920
N         -2.78090       -0.94050       -1.71560
C         -4.18940       -1.07810       -1.32600
C         -2.67750       -0.80530       -3.17150
Ge         0.07360        1.23840       -2.02650
N         -0.34400        1.09840       -3.88310
C         -0.57190        2.36680       -4.58630
C          0.62890        0.29410       -4.61610
N          0.62750        2.99170       -1.54320
C          1.48600        3.63760       -2.54680
C         -0.46940        3.87860       -1.15280
Ge         1.90180       -0.24590       -1.31300
Ge         2.68950        0.35590        0.93100
N          3.41310       -1.20290        1.73930
C          4.48610       -1.80710        0.94500
C          3.82080       -1.00130        3.13600
N          3.87060        1.84530        1.01100
C          5.29590        1.50110        0.97800
C          3.56760        2.78580       -0.06510
Ge         0.70430        0.98840        2.19840
N          1.10810        0.60030        4.01430
C         -0.07520        0.52900        4.86870
C          2.10260        1.51060        4.59370
N          0.32100        2.81780        1.85520
C         -1.03530        3.17600        2.27250
C          1.28670        3.75210        2.44640
C          3.28330       -0.04220       -2.70380
S          4.96270       -0.43650       -2.13300
C          5.75260       -0.09090       -3.73550
H         -4.77910       -1.88750        3.96460
H         -4.08010       -0.60050        5.03930
H         -4.04700       -2.33030        5.55430
H         -2.85150        0.34160        3.06970
H         -3.53760       -0.93220        2.03720
H         -2.94660       -3.35400        2.19840
H         -3.51830       -4.32050        0.78790
H         -2.97140       -2.65560        0.52050
H         -1.13380       -4.92510        2.79860
H         -1.95500       -5.96400        1.59400
H         -0.22630       -5.70390        1.42660
H          0.41400       -3.98170        4.19650
H         -0.67210       -2.64800        3.71960
H          0.89590       -2.28530        4.49900
H          2.79370       -3.87350        3.12020
H          2.58650       -3.80770        1.36340
H          1.57350       -4.92950        2.34670
H          0.85550       -4.40330       -3.74150
H          1.54170       -2.74520       -3.95480
H         -0.03180       -3.15820       -4.68290
H         -1.75350       -4.08950       -3.13830
H         -0.73660       -4.74590       -1.79680
H         -1.85680       -3.34990       -1.53410
H          4.41210       -4.08670       -1.87050
H          3.51690       -2.71290       -2.56390
H          3.10760       -4.37710       -3.07030
H          1.20330       -5.24460       -0.15450
H          1.49340       -5.55640       -1.89430
H          2.78450       -5.88110       -0.67800
H         -4.31870        1.82730       -2.37520
H         -3.95420        3.50110       -1.80770
H         -2.70240        2.53350       -2.63270
H         -4.46490        2.68880        0.80490
H         -5.15090        1.43830       -0.29080
H         -4.02360        0.97450        0.99870
H         -4.83140       -0.32400       -1.82470
H         -4.31300       -0.99670       -0.23030
H         -4.55250       -2.08660       -1.61710
H         -3.30400       -1.56900       -3.68230
H         -1.64060       -1.00400       -3.48750
H         -2.99210        0.20100       -3.51450
H         -1.08860        3.10290       -3.95490
H         -1.22630        2.17950       -5.46350
H          0.37500        2.81080       -4.96100
H          0.77680       -0.66240       -4.09820
H          1.59500        0.82980       -4.72080
H          0.23860        0.05940       -5.62950
H          2.18470        4.33270       -2.03780
H          2.09270        2.89700       -3.09950
H          0.90360        4.24590       -3.26940
H         -0.05590        4.80710       -0.70410
H         -1.10650        4.16000       -2.01250
H         -1.08640        3.40090       -0.38220
H          5.39040       -1.17420        0.91130
H          4.77450       -2.78890        1.37650
H          4.12420       -2.01180       -0.07480
H          4.55130       -1.77170        3.46650
H          2.94020       -1.12120        3.79110
H          4.26580       -0.00640        3.30690
H          5.91100        2.42390        1.05120
H          5.56910        0.98460        0.04350
H          5.57960        0.88930        1.85000
H          3.72610        2.32240       -1.06040
H          2.52460        3.12690        0.03450
H          4.20550        3.69190        0.01820
H         -0.73030       -0.28940        4.52880
H          0.22030        0.27680        5.91010
H         -0.62020        1.49280        4.88410
H          2.59220        1.01140        5.45630
H          1.63800        2.44640        4.96540
H          2.90060        1.75040        3.86560
H         -1.25260        4.23110        1.99850
H         -1.16380        3.06780        3.36740
H         -1.77040        2.55110        1.73460
H          1.04050        3.99490        3.50090
H          2.31720        3.36240        2.39290
H          1.26900        4.70050        1.86940
H          3.03570       -0.69810       -3.55990
H          3.28050        1.00540       -3.05210
H          5.57850        0.96580       -4.02710
H          6.84450       -0.26290       -3.64460
H          5.34600       -0.76850       -4.51510
