72
mol73-E-0
C         -3.21420       -4.07280       -3.09410
S         -1.73450       -3.12400       -2.62610
C         -2.60420       -2.08860       -1.41980
Ge        -1.38830       -0.82240       -0.58290
Ge         0.25070        0.10270       -2.21030
Ge        -1.04350        0.79410       -4.17230
Cl        -3.11370        0.22670       -4.00280
Cl        -0.89090        2.84770       -4.81560
Cl        -0.48180       -0.26870       -5.97310
Ge         1.84340       -1.21250       -3.50280
Cl         0.93650       -2.85360       -4.59080
Cl         2.67020        0.13510       -4.98300
Cl         3.60500       -2.01630       -2.57940
Ge         1.56010        1.76480       -0.96580
Ge         1.48700        3.89200       -2.13400
Cl         2.13700        3.64880       -4.18580
Cl         2.90150        5.29590       -1.28620
Cl        -0.41200        4.87820       -2.25260
Ge         4.00910        1.67130       -1.06270
Cl         4.75280        2.25790       -3.00580
Cl         4.82680        3.11190        0.33130
Cl         5.15340       -0.10210       -0.68230
Ge        -0.30760       -2.07480        1.23500
Ge         0.58510       -4.16870        0.40860
Cl         1.96760       -5.05710        1.82120
Cl        -1.05800       -5.56080        0.17630
Cl         1.50510       -4.14260       -1.52730
Ge        -1.74430       -3.13130        2.86610
Cl        -0.78790       -4.89890        3.67100
Cl        -2.10640       -1.96320        4.63700
Cl        -3.55440       -3.86790        1.93150
Ge         1.22820       -0.55270        2.34370
Ge         1.18430       -0.47590        4.76370
Cl         3.06910        0.34210        5.44960
Cl         1.01020       -2.45900        5.61970
Cl        -0.28150        0.79530        5.67470
Ge         3.47810       -1.42860        2.23930
Cl         3.83290       -2.77670        3.89590
Cl         4.93150        0.15570        2.50420
Cl         3.87710       -2.68410        0.53730
Ge         0.84010        1.68510        1.40410
Ge        -1.50960        2.44900        1.69740
Ge        -1.51730        4.85110        1.21540
Cl         0.47350        5.60730        0.89680
Cl        -2.83680        5.57070       -0.33230
Cl        -2.13660        6.05110        2.90780
Ge        -2.65180        2.69350        3.83580
Cl        -4.49210        3.75430        3.41320
Cl        -1.55800        3.89060        5.27440
Cl        -3.35050        0.97160        4.90760
Ge        -2.87880        0.92880        0.34050
Ge        -4.24540        2.22250       -1.19380
Cl        -5.72470        0.97290       -2.16340
Cl        -5.41120        3.69180       -0.11060
Cl        -3.22430        3.32270       -2.72350
Ge        -4.83830       -0.14070        1.35640
Cl        -5.65370       -1.58670       -0.03340
Cl        -6.42720        1.28090        1.71290
Cl        -4.78840       -1.20490        3.21760
C          2.09960        2.84780        2.32290
S          1.43940        3.38530        3.92250
C          2.89880        4.38270        4.35240
H         -3.98860       -3.39280       -3.50640
H         -2.93680       -4.81460       -3.87060
H         -3.61720       -4.61080       -2.21080
H         -3.42330       -1.53450       -1.91530
H         -3.03160       -2.73150       -0.62730
H          3.03590        2.28130        2.48590
H          2.31580        3.72630        1.68660
H          2.73570        4.85230        5.34380
H          3.79990        3.73660        4.40440
H          3.05100        5.18110        3.59660
