36
mol76-C-0
C          0.78190        9.80520       -1.12440
S          1.91210        8.38010       -1.17780
C          0.84040        7.30890       -0.17000
Ge         1.67780        5.56990        0.06030
Ge         1.76940        4.36860       -2.00780
Br         2.63900        5.71420       -3.69530
Br        -0.37650        3.68580       -2.59090
Ge         3.17660        2.45380       -1.71760
Br         2.27720        0.62870       -2.84550
Br         5.30150        2.91300       -2.54630
Ge         3.89430        5.79570        0.92670
Br         5.30010        6.58060       -0.75330
Br         3.89090        7.29800        2.70280
Ge         4.66250        3.65190        1.66570
Br         6.90580        3.44470        1.07930
Br         4.43890        3.48090        3.97460
Ge         3.32650        1.96140        0.61640
Ge         1.12720        2.03250        1.54780
Br        -0.31040        0.77910        0.21580
Br         1.16520        1.14670        3.69870
Ge         0.38840        4.30450        1.62110
Br         0.70380        5.16620        3.75870
Br        -1.86480        4.42530        1.05460
C          4.02500        0.16660        0.89190
S          5.71610        0.04210        0.21910
C          5.96650       -1.70570        0.66840
H          0.62840       10.13130       -0.07450
H          1.22810       10.64260       -1.69870
H         -0.19340        9.53600       -1.58070
H         -0.14020        7.16890       -0.67040
H          0.68690        7.76280        0.83110
H          3.97510       -0.07980        1.97270
H          3.37420       -0.54580        0.34490
H          5.80120       -1.85140        1.75610
H          5.26550       -2.34670        0.09460
H          7.00730       -1.99800        0.42030
