36
mol75-D-2
C          9.50780        2.46300        4.09270
S          8.00970        1.45740        3.85710
C          6.87520        2.74620        4.46110
Ge         5.04750        2.09090        4.39170
Ge         4.50430        1.26440        2.21710
Cl         5.10940        2.68510        0.70070
Cl         5.51740       -0.62180        1.90290
Ge         2.13710        0.93710        2.09940
Cl         1.23860        2.65630        1.14000
Cl         1.73690       -0.84920        0.94380
Ge         3.50000        3.81890        4.95890
Cl         4.21820        4.89600        6.69260
Cl         3.28720        5.17010        3.28180
Ge         1.38870        2.80760        5.44580
Cl         1.22180        2.48090        7.57850
Cl        -0.20280        4.11900        4.79090
Ge         1.27690        0.69510        4.32640
Ge         2.72220       -0.80850        5.49310
Cl         1.79300       -1.41240        7.35180
Cl         3.08790       -2.54500        4.25480
Ge         4.78910        0.30360        5.95190
Cl         6.43180       -1.08850        5.73770
Cl         4.76050        1.10910        7.96020
C         -0.53930       -0.01870        4.42340
S         -1.28910       -0.17530        2.76770
C         -2.88010       -0.84100        3.34830
H         10.39300        1.87230        3.77990
H          9.61880        2.73740        5.16240
H          9.45190        3.38200        3.47280
H          7.12000        3.01070        5.51070
H          6.95250        3.64910        3.82020
H         -0.48410       -1.03120        4.87230
H         -1.15700        0.61680        5.09140
H         -3.54800       -0.99330        2.47620
H         -3.35990       -0.12650        4.04430
H         -2.72490       -1.81500        3.85690
