72
mol70-E-1
C          3.43350        5.53160        0.71950
S          3.23170        3.73420        0.91660
C          1.63650        3.67260        0.04930
Ge         0.96670        1.84700       -0.00640
Ge         2.68310        0.54790       -1.09570
Si         3.38200        1.55150       -3.06510
F          4.81690        0.82060       -3.56430
F          2.24950        1.39700       -4.29490
F          3.67240        3.18710       -2.77840
Si         4.66280        0.60580        0.09740
F          5.08600        2.21100        0.39020
F          4.52140       -0.21730        1.55340
F          5.87580       -0.11750       -0.82340
Ge         1.91080       -1.70350       -1.45600
Si         1.89510       -2.12130       -3.73580
F          1.24230       -3.64250       -4.04710
F          3.48730       -2.09540       -4.28960
F          1.03110       -0.95150       -4.57190
Si         3.41020       -3.32480       -0.74020
F          2.61230       -4.46090        0.21250
F          4.68410       -2.64920        0.12700
F          4.04950       -4.11680       -2.08440
Ge         0.62180        0.95480        2.21540
Si        -1.03850        1.97390        3.47150
F         -0.78130        3.63720        3.54110
F         -2.56400        1.66160        2.84780
F         -0.97320        1.35340        5.03780
Si         2.47590        1.37280        3.54830
F          3.52920        2.41730        2.75170
F          1.97290        2.11590        4.97570
F          3.28100       -0.04870        3.95130
Ge         0.09520       -1.38480        2.00530
Si         1.69460       -2.72690        2.99870
F          3.22550       -2.40230        2.39150
F          1.30610       -4.34460        2.72710
F          1.69340       -2.43840        4.65980
Si        -1.75460       -1.97550        3.27160
F         -1.33570       -1.90970        4.90330
F         -3.05680       -0.94730        3.01400
F         -2.20670       -3.55290        2.88630
Ge        -0.20860       -1.95890       -0.31810
Ge        -1.88700       -0.52220       -1.29260
Si        -3.88950       -0.67420       -0.14350
F         -4.02390        0.55510        0.99390
F         -3.99830       -2.17980        0.60610
F         -5.16260       -0.51750       -1.23780
Si        -2.56420       -1.22190       -3.39850
F         -3.14050        0.09910       -4.27260
F         -1.32010       -1.96510       -4.24570
F         -3.81320       -2.34040       -3.21970
Ge        -1.06900        1.74310       -1.30100
Si        -0.72580        2.49040       -3.46350
F         -2.11290        3.28820       -3.99440
F         -0.43250        1.20400       -4.50380
F          0.56730        3.57100       -3.48970
Si        -2.67250        3.26100       -0.58820
F         -2.40670        4.73230       -1.36760
F         -4.20580        2.69700       -1.00290
F         -2.59400        3.52960        1.06700
C         -0.81340       -3.80780       -0.33410
S         -1.00900       -4.39400       -2.04270
C         -1.55350       -6.06190       -1.56120
H          2.59710        6.06600        1.21620
H          3.46180        5.79630       -0.35810
H          4.38830        5.84210        1.19080
H          0.89600        4.30340        0.58170
H          1.75500        4.04150       -0.98960
H         -1.78630       -3.86470        0.19510
H         -0.06770       -4.43240        0.19820
H         -2.48810       -6.00100       -0.96570
H         -0.76170       -6.56530       -0.96820
H         -1.74920       -6.65660       -2.47680
