60
mol77-A-2
C          0.51890       -5.65440       -2.58960
S          1.20710       -4.12290       -1.88790
C         -0.41080       -3.31080       -1.70110
Ge        -0.17040       -1.53860       -0.94100
Ge        -2.26050       -0.39120       -0.78630
N         -2.87440        0.00290       -2.50080
N         -3.50850       -1.45370        0.10070
Ge        -1.93990        1.64070        0.43140
N         -2.62780        1.45420        2.15290
N         -2.81620        3.03150       -0.44590
Ge         0.79840       -1.67540        1.24130
N          2.26870       -2.81970        1.20710
N         -0.46720       -2.32080        2.44760
Ge         1.48940        0.50990        1.92100
N          3.33400        0.67790        1.71730
N          1.03270        0.78920        3.70560
Ge         0.39500        2.13060        0.54770
Ge         1.29460        2.00110       -1.66080
N          3.04720        2.63470       -1.67310
N          0.24500        3.02560       -2.81000
Ge         1.26600       -0.27960       -2.37620
N          0.62310       -0.37010       -4.12260
N          2.99030       -0.98250       -2.31000
C          0.63780        3.91260        1.28160
S          2.41400        4.23980        1.50810
C          2.16730        5.91560        2.17310
H          1.34870       -6.35790       -2.80630
H         -0.17400       -6.12900       -1.86390
H         -0.02010       -5.43280       -3.53420
H         -1.05900       -3.90350       -1.02260
H         -0.90100       -3.20890       -2.69160
H         -3.00000       -0.91060       -2.99100
H         -3.82500        0.42070       -2.39020
H         -3.76720       -2.22350       -0.55560
H         -4.36350       -0.86770        0.22710
H         -2.19560        0.59330        2.55510
H         -3.64740        1.25480        2.04700
H         -2.68160        3.88610        0.13880
H         -3.83550        2.80570       -0.42210
H          2.96180       -2.39880        0.54970
H          2.69740       -2.78440        2.15860
H         -1.34650       -1.78520        2.27430
H         -0.66040       -3.31140        2.18150
H          3.53140        0.59950        0.69530
H          3.76400       -0.15740        2.17330
H         -0.00350        0.68050        3.77100
H          1.24340        1.79070        3.91410
H          3.41040        2.48960       -2.64140
H          2.99370        3.66670       -1.52400
H          0.29750        4.01000       -2.46560
H          0.71430        3.00550       -3.74270
H         -0.33330        0.04900       -4.11040
H          1.22230        0.26540       -4.69500
H          2.89520       -2.01770       -2.40950
H          3.34970       -0.80450       -1.34660
H          0.11440        3.96850        2.25870
H          0.19890        4.65100        0.57890
H          1.56440        5.87160        3.10400
H          1.65400        6.55210        1.42260
H          3.15580        6.36150        2.40630
