60
mol77-D-1
C         -3.92830       -0.48220       -4.50220
S         -2.88490        0.38850       -3.29210
C         -2.15180       -1.13290       -2.61380
Ge        -0.89400       -0.68090       -1.20330
Ge         0.73780        0.83470       -2.07420
N          1.40000        0.18490       -3.69030
N         -0.05690        2.49720       -2.34930
Ge         2.52460        1.07020       -0.50350
N          3.97720        0.02390       -1.02040
N          3.03780        2.85950       -0.41650
Ge         0.20430       -2.63420       -0.37710
N          1.34510       -3.31800       -1.68180
N         -1.06150       -3.92220        0.08300
Ge         1.45360       -2.02710        1.56930
N          0.52850       -2.56860        3.09350
N          3.12410       -2.85120        1.51960
Ge         1.73890        0.34430        1.63020
Ge        -0.37610        1.37890        2.04030
N         -0.27120        3.19500        1.63490
N         -0.84590        1.15450        3.82940
Ge        -2.01440        0.34850        0.63920
N         -2.92670       -0.95030        1.61600
N         -3.21600        1.62840        0.01420
C          3.01080        0.79140        3.02950
S          3.15840        2.60010        3.16720
C          4.37830        2.54210        4.51620
H         -4.63210       -1.16280       -3.97930
H         -4.51220        0.26360       -5.07940
H         -3.29470       -1.06350       -5.20400
H         -1.60810       -1.68020       -3.41160
H         -2.94500       -1.78230       -2.18890
H          0.57180       -0.00540       -4.29740
H          1.84040       -0.73890       -3.48500
H          0.68710        3.12530       -2.72670
H         -0.30870        2.86600       -1.40530
H          4.71810        0.16650       -0.29840
H          3.67220       -0.97100       -0.94050
H          3.29130        3.14540       -1.38830
H          3.91760        2.89220        0.14500
H          0.78890       -3.37550       -2.56390
H          2.08510       -2.59960       -1.83970
H         -1.45660       -4.28690       -0.81210
H         -0.53830       -4.71130        0.52330
H          0.49760       -3.61220        3.07080
H          1.11850       -2.30080        3.91250
H          3.61620       -2.58340        2.40090
H          2.95230       -3.88000        1.56940
H         -1.22810        3.58870        1.77570
H          0.34260        3.63050        2.35830
H         -0.11080        1.63570        4.39400
H         -1.73400        1.68420        3.97440
H         -3.35970       -0.46220        2.43130
H         -3.71150       -1.28450        1.01420
H         -2.65950        2.31640       -0.53980
H         -3.84700        1.14060       -0.66000
H          2.64740        0.36630        3.98810
H          3.99430        0.34630        2.77220
H          4.65080        3.57850        4.80240
H          3.94610        2.02740        5.39960
H          5.29270        2.00970        4.18110
