132
mol78-E-0
C          2.93610        5.24790        1.59220
S          2.68570        3.71300        0.64730
C          1.33280        3.10420        1.70260
Ge         0.61370        1.35900        1.12380
Ge         0.18270        1.30560       -1.30210
N         -0.48380        2.93190       -2.04390
C         -0.40990        4.04420       -1.10160
C          0.12400        3.32260       -3.31930
N          1.77280        0.68600       -2.13990
C          1.68740        0.54510       -3.59850
C          2.93910        1.48790       -1.76730
Ge        -1.57350       -0.36850       -1.59210
N         -1.44070       -0.98500       -3.39020
C         -2.06810       -2.28840       -3.63340
C         -1.94680        0.00620       -4.34760
N         -3.28370        0.36550       -1.20850
C         -4.38720       -0.44750       -1.73190
C         -3.42190        1.75150       -1.66640
Ge        -1.47380        1.04870        2.37160
N         -2.83070        2.01480        1.45740
C         -2.83910        3.44410        1.78830
C         -4.16680        1.44600        1.66020
N         -1.36230        1.52960        4.21210
C         -2.68250        1.55090        4.85350
C         -0.65540        2.78900        4.46890
Ge        -1.91620       -1.35370        2.30890
N         -0.83120       -2.21700        3.60970
C         -1.13410       -1.86080        5.00100
C         -0.82140       -3.67080        3.44050
N         -3.78680       -1.57370        2.61170
C         -4.13960       -2.10580        3.93140
C         -4.42850       -2.37120        1.57120
Ge        -1.11900       -2.08800        0.09550
Ge         1.32240       -2.36800        0.21340
N          1.72670       -4.09340        0.92340
C          1.27000       -5.19570        0.06850
C          3.14520       -4.28870        1.24040
N          1.95330       -2.12110       -1.56220
C          3.40640       -1.96270       -1.64510
C          1.50950       -3.17640       -2.47610
Ge         2.08650       -0.53060        1.68310
N          1.73500       -0.93250        3.50710
C          2.15340        0.13690        4.41660
C          2.30250       -2.21080        3.93960
N          3.90110       -0.03520        1.35720
C          4.84810       -1.15120        1.44940
C          4.36750        1.06170        2.21380
C         -2.05970       -3.71040       -0.52160
S         -2.16700       -5.00970        0.74920
C         -3.07090       -6.18220       -0.30870
H          3.21430        5.00990        2.64010
H          3.75750        5.82920        1.12590
H          2.01020        5.85970        1.57800
H          1.72070        3.02480        2.72940
H          0.51670        3.84940        1.71340
H          0.62920        4.40780       -0.98790
H         -1.04130        4.88420       -1.46130
H         -0.81830        3.73330       -0.13260
H          1.20420        3.53870       -3.20790
H         -0.04080        2.54870       -4.08670
H         -0.36940        4.23980       -3.70790
H          1.96750        1.47920       -4.12840
H          2.39500       -0.24050       -3.93100
H          0.68570        0.22380       -3.91390
H          3.84380        1.13910       -2.31130
H          2.78460        2.56080       -1.99040
H          3.14710        1.35400       -0.69260
H         -3.06190       -2.37170       -3.16370
H         -2.18710       -2.47670       -4.72330
H         -1.40740       -3.08850       -3.27660
H         -3.05150       -0.01240       -4.42240
H         -1.52790       -0.20710       -5.35400
H         -1.61970        1.02180       -4.07270
H         -4.22900       -1.51750       -1.52430
H         -5.33070       -0.15780       -1.22230
H         -4.52740       -0.30900       -2.82130
H         -2.72840        2.40140       -1.10940
H         -4.44290        2.13060       -1.44460
H         -3.24570        1.84930       -2.75390
H         -3.41510        3.99670        1.01590
H         -1.81990        3.86140        1.78460
H         -3.30540        3.64180        2.77280
H         -4.21770        0.43990        1.21440
H         -4.92980        2.05580        1.12970
H         -4.44200        1.40310        2.73050
H         -2.55850        1.46330        5.95370
H         -3.29130        0.69150        4.52980
H         -3.23400        2.48760        4.64160
H         -0.95740        3.59050        3.77500
H         -0.84040        3.14590        5.50620
H          0.42770        2.62250        4.41390
H         -1.44600       -0.81150        5.08910
H         -0.21820       -1.97500        5.61450
H         -1.90680       -2.52190        5.44570
H         -1.84530       -4.09060        3.45970
H         -0.32920       -3.92500        2.48700
H         -0.22480       -4.15430        4.24440
H         -3.75450       -3.13410        4.07350
H         -3.77810       -1.44080        4.73270
H         -5.24500       -2.13660        4.04330
H         -4.12230       -2.00360        0.58460
H         -5.53110       -2.25020        1.63100
H         -4.18540       -3.44550        1.67930
H          2.02130       -5.47000       -0.70180
H          1.07970       -6.08960        0.69890
H          0.33140       -4.94920       -0.44130
H          3.27770       -5.25190        1.77860
H          3.77290       -4.31580        0.32960
H          3.50850       -3.50710        1.91870
H          3.71370       -1.79080       -2.69840
H          3.72000       -1.06960       -1.08050
H          3.93760       -2.86250       -1.28640
H          0.48790       -3.50180       -2.23330
H          1.49300       -2.77820       -3.51240
H          2.18480       -4.05710       -2.45220
H          1.97980        1.12490        3.96700
H          3.22430        0.04950        4.69520
H          1.54660        0.08410        5.34500
H          3.40470       -2.21630        3.86360
H          1.86380       -3.03460        3.35340
H          2.03990       -2.40740        5.00070
H          4.55570       -1.97210        0.78340
H          4.94620       -1.52620        2.48570
H          5.85170       -0.81760        1.10760
H          5.17760        1.61210        1.69080
H          3.56610        1.77980        2.42240
H          4.76760        0.69750        3.18350
H         -1.53590       -4.13640       -1.39070
H         -3.07930       -3.43800       -0.85000
H         -2.46480       -6.43430       -1.20370
H         -3.26610       -7.11060        0.26580
H         -4.04090       -5.74330       -0.62220
