72
mol71-C-2
C         -0.39150       -6.00680       -2.99490
S         -1.15390       -4.43890       -2.47580
C          0.38180       -3.74750       -1.80670
Ge         0.09560       -1.96460       -1.07980
Ge         2.21650       -0.65560       -0.98490
Si         3.84800       -2.10790       -0.01790
Cl         3.08020       -4.01230        0.30850
Cl         5.48110       -2.54140       -1.25640
Cl         4.78680       -1.44090        1.71820
Si         3.59820       -0.09060       -2.82200
Cl         4.09910       -1.72430       -4.03710
Cl         2.97260        1.39590       -4.11870
Cl         5.38570        0.67560       -2.04380
Ge         1.62570        1.48050        0.08850
Si         3.04530        1.84080        1.94020
Cl         2.82750        3.76110        2.74730
Cl         2.82980        0.50560        3.50320
Cl         5.05920        1.71650        1.37860
Si         2.28560        3.55060       -0.90660
Cl         4.35430        3.84740       -0.85140
Cl         1.43790        5.15370        0.13940
Cl         1.84420        3.99320       -2.87640
Ge        -0.85040       -2.38430        1.17670
Si        -2.39650       -4.20200        1.05100
Cl        -2.93250       -4.93510        2.93410
Cl        -1.53500       -5.80910        0.02270
Cl        -4.23750       -3.99510        0.13480
Si         0.46020       -3.52150        2.77760
Cl         0.86920       -5.49630        2.21230
Cl         2.27330       -2.64110        3.23490
Cl        -0.55450       -3.68170        4.60270
Ge        -1.55950       -0.21430        2.10050
Si        -0.75270        0.54390        4.21710
Cl         0.15470        2.40850        4.06710
Cl        -2.24380        0.93690        5.63520
Cl         0.50570       -0.74850        5.25950
Si        -3.76390       -0.54530        2.89740
Cl        -3.64580       -1.85390        4.52880
Cl        -4.69060        1.20970        3.57390
Cl        -5.14440       -1.46080        1.65710
Ge        -0.83290        1.49150        0.43230
Ge        -2.01970        1.29290       -1.71690
Si        -4.25520        1.98590       -1.47040
Cl        -4.34250        4.07760       -1.39420
Cl        -5.44690        1.37570       -3.08250
Cl        -5.18930        1.38150        0.27180
Si        -1.56370        2.87430       -3.39220
Cl        -1.23000        4.76710       -2.55780
Cl        -0.04310        2.30900       -4.69070
Cl        -3.19630        3.12340       -4.67970
Ge        -1.58910       -0.94870       -2.56200
Si        -0.93640       -1.19120       -4.81000
Cl        -1.28660       -3.15850       -5.43950
Cl        -2.02560        0.06820       -6.08230
Cl         1.07300       -0.89290       -5.19230
Si        -3.62170       -2.08140       -2.88030
Cl        -4.47520       -1.62280       -4.73670
Cl        -3.32100       -4.15480       -2.91250
Cl        -5.11280       -1.52450       -1.54450
C         -1.21270        3.30100        1.04070
S         -2.79200        3.37900        1.92630
C         -2.68180        5.16380        2.25990
H         -1.16540       -6.64550       -3.46750
H          0.02440       -6.53850       -2.11380
H          0.41480       -5.81280       -3.73270
H          1.14870       -3.69700       -2.60140
H          0.75210       -4.39810       -0.99230
H         -1.25660        3.96210        0.15490
H         -0.39430        3.64160        1.70120
H         -1.77630        5.38390        2.86280
H         -2.64460        5.72830        1.30470
H         -3.57920        5.48060        2.82950
