36
mol74-C-2
C         -3.13280       -0.40560        4.05810
S         -4.13120        0.30930        2.71410
C         -2.89390        1.54580        2.19390
Ge        -3.53380        2.62280        0.69520
Ge        -5.92110        2.47510        0.64410
F         -6.58670        3.39600        1.98240
F         -6.41170        0.79480        0.77880
Ge        -6.71480        3.37930       -1.42300
F         -8.21030        4.25720       -1.14940
F         -6.98660        2.08070       -2.57280
Ge        -2.94330        4.92480        0.98840
F         -1.25020        5.16990        0.59500
F         -3.24280        5.40580        2.65000
Ge        -4.28000        6.25010       -0.48850
F         -3.31910        7.56990       -1.13420
F         -5.66340        6.89120        0.38160
Ge        -5.04440        4.85870       -2.27620
Ge        -3.21160        3.54510       -3.06780
F         -1.81730        4.58270       -3.31590
F         -3.65020        2.76600       -4.57870
Ge        -2.69560        1.88410       -1.42430
F         -0.95490        1.66740       -1.34890
F         -3.46500        0.36640       -1.85620
C         -5.75940        5.93950       -3.72380
S         -7.12810        6.96220       -3.09520
C         -7.46400        7.75410       -4.69900
H         -3.74130       -1.16150        4.59500
H         -2.82660        0.38250        4.77680
H         -2.23800       -0.90560        3.63970
H         -2.71190        2.22740        3.04970
H         -1.93020        1.06410        1.92820
H         -4.94990        6.58800       -4.11840
H         -6.12400        5.26550       -4.52650
H         -8.30610        8.46640       -4.58160
H         -7.74390        6.98790       -5.45180
H         -6.56820        8.31090       -5.04480
