72
mol71-D-0
C         -3.25680        5.85400       -0.36860
S         -3.26480        4.13370        0.22250
C         -1.61180        3.75500       -0.41630
Ge        -1.10700        1.91670       -0.02320
Ge         1.37080        1.93190       -0.17620
Si         2.03170        3.28930       -2.02870
Cl         1.03100        5.12710       -1.96680
Cl         4.07380        3.73690       -2.01110
Cl         1.74850        2.66920       -3.97960
Si         2.60570        3.26710        1.32910
Cl         4.66470        3.04190        1.01850
Cl         2.30720        2.86140        3.33370
Cl         2.24000        5.31210        1.06230
Ge         2.14000       -0.40170       -0.01160
Si         3.65450       -0.70660       -1.80520
Cl         4.32630       -2.68130       -2.01800
Cl         3.08620       -0.10490       -3.70190
Cl         5.33390        0.48160       -1.41030
Si         3.73710       -1.05650        1.63950
Cl         4.49120        0.44990        2.86510
Cl         3.02120       -2.60760        2.82430
Cl         5.48940       -1.91280        0.87460
Ge        -1.90850        1.20110        2.22770
Si        -4.15940        1.13230        2.95730
Cl        -4.13300        0.80960        5.02690
Cl        -5.38690       -0.38050        2.25940
Cl        -5.21240        2.91360        2.61920
Si        -1.32290        2.96330        3.73010
Cl        -0.48200        4.57780        2.72570
Cl        -2.94810        3.88420        4.67870
Cl        -0.11030        2.45470        5.34600
Ge        -1.03340       -1.07890        2.54520
Si         0.17560       -1.17410        4.57080
Cl         1.90420       -0.04270        4.63250
Cl         0.71250       -3.13210        5.08500
Cl        -0.98900       -0.49510        6.17370
Si        -2.48770       -2.83870        3.25150
Cl        -1.47440       -4.67020        3.20780
Cl        -3.15770       -2.59030        5.21620
Cl        -4.24730       -3.25510        2.25090
Ge         0.09030       -1.75070        0.43600
Ge        -1.49660       -1.73170       -1.44780
Si        -3.44560       -3.03070       -1.27610
Cl        -5.07020       -2.00830       -0.48020
Cl        -3.05970       -4.82050       -0.25720
Cl        -4.14980       -3.61370       -3.16000
Si        -0.63870       -2.99650       -3.23730
Cl         1.38300       -2.76740       -3.60280
Cl        -0.85220       -5.03950       -2.82540
Cl        -1.66140       -2.61630       -5.02650
Ge        -2.09040        0.59360       -1.85330
Si        -1.55260        1.17660       -4.06380
Cl        -1.37060        3.25450       -4.26220
Cl         0.09830        0.16760       -4.82160
Cl        -3.07380        0.63030       -5.39510
Si        -4.36510        1.13950       -2.11060
Cl        -5.42420        1.39880       -0.35440
Cl        -5.38420       -0.27670       -3.27140
Cl        -4.54330        2.98370       -3.08830
C          0.51150       -3.63140        0.70800
S          1.84290       -4.17330       -0.39550
C          1.85090       -5.88550        0.21880
H         -4.21300        6.33830       -0.08320
H         -2.41770        6.41290        0.09580
H         -3.15820        5.87680       -1.47390
H         -1.60410        3.88890       -1.51440
H         -0.86940        4.43970        0.03310
H          0.80890       -3.78850        1.76100
H         -0.39960       -4.22370        0.50100
H          0.86320       -6.35920        0.03970
H          2.62870       -6.46030       -0.32420
H          2.08430       -5.90030        1.30390
