72
mol70-C-1
C         -3.07250        2.79740       -4.37130
S         -2.31140        1.33360       -3.60410
C         -1.85640        2.19540       -2.07070
Ge        -0.95780        0.97570       -0.85030
Ge        -0.50220        2.07890        1.24880
Si         0.63840        4.08260        0.98820
F         -0.48520        5.31400        0.73510
F          1.67700        4.04940       -0.33000
F          1.50800        4.42230        2.39180
Si        -2.45160        2.83910        2.23620
F         -3.61400        3.12100        1.04880
F         -3.02480        1.73250        3.36300
F         -2.13090        4.28670        3.03900
Ge         0.65880        0.54840        2.70150
Si        -0.18610        0.57280        4.86230
F         -0.78210        2.10920        5.21680
F          1.06510        0.21570        5.93470
F         -1.39630       -0.57030        5.07840
Si         2.82330        1.26370        3.09660
F          3.37600        2.22880        1.83730
F          3.83220       -0.07150        3.29700
F          2.84770        2.18180        4.51050
Ge         1.07380        0.08440       -1.81450
Si         2.76960        1.61610       -2.20270
F          3.99680        0.84100       -3.06020
F          2.19610        2.90120       -3.12840
F          3.41840        2.19550       -0.76850
Si         0.67880       -0.66460       -3.97600
F          1.81000        0.02950       -5.01570
F         -0.85790       -0.18960       -4.47400
F          0.82060       -2.33770       -4.08630
Ge         1.90990       -1.62580       -0.34100
Si         4.17620       -1.37810        0.07910
F          5.03010       -1.75160       -1.32570
F          4.57030        0.18710        0.54170
F          4.63240       -2.44970        1.29760
Si         1.92340       -3.70760       -1.34690
F          3.01310       -3.68470       -2.63320
F          2.42860       -4.86090       -0.22620
F          0.40240       -4.11290       -1.93010
Ge         0.63270       -1.65130        1.70570
Ge        -1.62900       -2.33800        1.19120
Si        -1.66890       -4.57120        0.55850
F         -0.16530       -5.27330        0.84360
F         -2.08030       -4.74700       -1.06360
F         -2.81780       -5.38650        1.48450
Si        -3.10750       -2.37940        2.97600
F         -2.48270       -3.31280        4.23140
F         -3.44640       -0.83380        3.53290
F         -4.54960       -3.07820        2.45240
Ge        -2.49690       -0.84640       -0.48700
Si        -2.97450       -1.94720       -2.46330
F         -3.48430       -0.82490       -3.61310
F         -1.63380       -2.77770       -3.03800
F         -4.22140       -3.04780       -2.18690
Si        -4.61410       -0.07070        0.05190
F         -5.70830       -1.34550       -0.08790
F         -4.69240        0.52930        1.61810
F         -5.04920        1.14480       -1.03190
C          1.52280       -2.92880        2.87190
S          0.61010       -3.10160        4.43330
C          1.76090       -4.32170        5.13850
H         -2.31960        3.60540       -4.48120
H         -3.45300        2.52210       -5.37620
H         -3.92080        3.15530       -3.75140
H         -2.76520        2.59220       -1.57460
H         -1.16760        3.03310       -2.30200
H          2.54950       -2.56280        3.07670
H          1.57750       -3.90770        2.35400
H          1.40810       -4.60890        6.15010
H          1.79490       -5.22820        4.49890
H          2.77700       -3.88300        5.22350
