72
mol72-D-2
C         -6.44390       -0.60970       -1.43360
S         -5.06430       -0.35500       -0.27500
C         -3.77510       -0.58320       -1.53240
Ge        -1.99750       -0.39760       -0.75560
Ge        -2.22400       -1.32040        1.46320
Ge        -3.28180       -3.47210        1.37110
F         -2.19770       -4.76670        1.84020
F         -4.64040       -3.47020        2.48310
F         -3.89660       -3.76540       -0.24520
Ge        -3.83020       -0.06400        2.71730
F         -4.15100       -0.90620        4.22410
F         -5.32680        0.03760        1.80560
F         -3.25580        1.54750        3.07690
Ge        -0.07960       -1.38400        2.56000
Ge         0.59990       -3.63100        3.02000
F          0.55130       -4.62120        1.57800
F          2.22800       -3.61860        3.67660
F         -0.48720       -4.31330        4.21810
Ge        -0.13460       -0.40190        4.75020
F          0.17940       -1.66350        5.93020
F         -1.69750        0.30600        5.10840
F          1.10780        0.82340        4.91310
Ge        -1.23810        1.89670       -0.62170
Ge        -0.82530        2.91360       -2.75510
F          0.43630        2.07910       -3.63360
F         -2.28580        2.94850       -3.72580
F         -0.32660        4.57470       -2.48140
Ge        -3.01770        3.25150        0.24650
F         -4.50240        2.31690        0.27150
F         -3.24440        4.62320       -0.82570
F         -2.67960        3.86140        1.85400
Ge         0.78290        1.97480        0.70480
Ge         2.57330        3.18980       -0.33140
F          2.81230        4.68760        0.55310
F          2.23970        3.58820       -2.00490
F          4.05010        2.24740       -0.23370
Ge         0.37990        3.26430        2.68740
F         -0.10490        4.87970        2.19940
F         -0.88820        2.56200        3.66630
F          1.84120        3.41290        3.64610
Ge         1.52290       -0.28880        1.13670
Ge         1.74040       -1.49450       -0.94290
Ge         3.35640       -0.42580       -2.34900
F          2.79550        1.13000       -2.91590
F          3.66920       -1.45970       -3.73330
F          4.85440       -0.21910       -1.45760
Ge         2.77990       -3.62490       -0.57100
F          4.13790       -3.77930       -1.67310
F          1.68460       -4.96020       -0.86820
F          3.39310       -3.71040        1.07020
Ge        -0.40510       -1.68220       -2.02340
Ge        -0.34290       -0.99420       -4.32280
F          1.22570       -0.35230       -4.76930
F         -0.66840       -2.39590       -5.32860
F         -1.57510        0.21000       -4.64450
Ge        -1.10390       -3.96420       -2.18730
F         -1.06290       -4.75860       -0.62870
F         -2.73220       -4.02350       -2.84080
F         -0.02330       -4.80590       -3.28580
C          3.29930       -0.38680        1.93190
S          3.58440        1.00130        3.06640
C          5.26930        0.47990        3.51340
H         -7.40150       -0.51260       -0.88240
H         -6.41300        0.15480       -2.23780
H         -6.38650       -1.62530       -1.87770
H         -3.86230       -1.59810       -1.97020
H         -3.89170        0.17260       -2.33560
H          3.39050       -1.34740        2.47860
H          4.05050       -0.35740        1.11700
H          5.91520        0.46230        2.61090
H          5.69000        1.20280        4.24180
H          5.24620       -0.52740        3.97900
