48
mol79-B-0
C         -1.52630       -3.74690       -1.79650
S         -0.32200       -2.50240       -1.23060
C          1.03050       -3.68350       -0.90380
Ge         2.59380       -2.72950       -0.24840
Ge         4.37190       -4.28980        0.08950
O          3.98510       -5.32790        1.49340
O          4.57000       -5.30050       -1.37250
Ge         6.39630       -3.09150        0.52030
O          7.30170       -3.89180        1.83860
O          7.39680       -3.04450       -0.96150
Ge         2.09250       -1.69000        1.84360
O          1.01730       -0.28720        1.57110
O          1.28420       -2.86910        2.91790
Ge         4.13730       -0.96020        2.84700
O          3.90660        0.65670        3.57540
O          4.62670       -2.12460        4.11280
Ge         5.83830       -0.86340        1.16840
Ge         5.00970        0.28770       -0.75480
O          6.34710        0.55260       -1.91190
O          4.32330        1.86350       -0.26090
Ge         3.31100       -1.04360       -1.78700
O          3.96500       -1.82360       -3.25740
O          1.92890        0.00540       -2.22120
C          7.41900        0.03000        1.85780
S          7.00380        1.75130        2.27990
C          8.68180        2.16830        2.84790
H         -2.43990       -3.22990       -2.15480
H         -1.10310       -4.34640       -2.62820
H         -1.79890       -4.41720       -0.95500
H          0.70040       -4.39030       -0.11550
H          1.30740       -4.27130       -1.80350
H          3.90460       -4.69690        2.25240
H          5.36110       -5.86360       -1.17940
H          7.37900       -4.83560        1.54900
H          7.50480       -3.99470       -1.21850
H          1.46010        0.22870        0.85150
H          1.20430       -2.39960        3.78590
H          3.64580        1.23610        2.81630
H          5.56680       -1.88930        4.31620
H          7.05340        0.99490       -1.37710
H          3.53230        1.62860        0.28570
H          4.30880       -1.07340       -3.80450
H          2.32200        0.70880       -2.79640
H          7.76970       -0.51090        2.76130
H          8.20890        0.00910        1.07840
H          8.69890        3.22670        3.17940
H          9.40820        2.03990        2.01860
H          8.96770        1.51960        3.70190
