48
mol79-A-0
C          3.79000        0.16890       -5.63240
S          2.58850        0.96060       -4.51810
C          2.58480       -0.40670       -3.31630
Ge         1.37060        0.01610       -1.86010
Ge        -0.81450        0.49520       -2.70080
O         -1.28180       -0.74310       -3.90360
O         -0.81620        2.11280       -3.46350
Ge        -2.35350        0.46710       -0.87020
O         -3.57570        1.75350       -1.09340
O         -3.15940       -1.12750       -0.78920
Ge         2.15060        1.90940       -0.62530
O          2.60960        3.22410       -1.74730
O          3.56360        1.43610        0.36340
Ge         0.38570        2.65650        0.80600
O          1.06170        3.18050        2.37650
O         -0.48310        4.01650        0.03500
Ge        -1.12970        0.84130        1.14900
Ge         0.14150       -1.12240        1.63620
O         -0.94320       -2.40890        2.24160
O          1.37780       -0.74050        2.87080
Ge         1.21060       -1.84910       -0.37570
O          0.23420       -3.13610       -1.14290
O          2.84570       -2.47110       -0.00430
C         -2.33260        1.22510        2.62530
S         -3.19130        2.79980        2.31360
C         -4.14810        2.74980        3.86090
H          3.97510        0.83690       -6.49830
H          3.38760       -0.79690       -6.00320
H          4.74850       -0.00300       -5.09980
H          2.24130       -1.34140       -3.80610
H          3.60320       -0.55410       -2.90060
H         -2.22680       -0.53800       -4.11630
H         -0.49830        2.72260       -2.75090
H         -4.26170        1.56630       -0.40440
H         -2.41950       -1.77220       -0.65680
H          3.44620        2.90770       -2.17170
H          3.19030        0.83570        1.05660
H          1.75710        3.84400        2.13820
H          0.22860        4.66070       -0.20710
H         -1.44330       -1.98310        2.98260
H          0.89370       -0.20710        3.55020
H          0.57410       -3.18540       -2.07160
H          3.34150       -1.68190        0.32950
H         -3.06800        0.39850        2.71100
H         -1.73810        1.29550        3.55970
H         -4.78990        3.65270        3.91880
H         -4.79450        1.84790        3.88080
H         -3.46230        2.74010        4.73360
