36
mol74-E-0
C          8.55370        1.24870        8.03450
S          7.95170        2.10310        6.54460
C          6.33120        1.27370        6.54820
Ge         5.27820        1.90910        5.04420
Ge         6.35240        1.37460        2.97640
F          6.17720       -0.34270        2.65640
F          8.05510        1.79440        3.06020
Ge         5.29890        2.63060        1.23450
F          6.21010        4.10340        0.94740
F          5.25420        1.67340       -0.23600
Ge         3.12300        0.87860        5.06600
F          2.16110        1.56810        6.36280
F          3.29560       -0.85170        5.30750
Ge         2.05990        1.29770        2.96410
F          2.25470       -0.10270        1.92350
F          0.35190        1.61120        3.22220
Ge         3.08630        3.20850        1.94380
Ge         3.28470        4.91410        3.60830
F          3.72160        6.43460        2.84720
F          1.75150        5.08830        4.44580
Ge         4.98420        4.27810        5.16790
F          4.49780        4.73100        6.79280
F          6.49360        5.07400        4.75460
C          2.05320        3.91660        0.44510
S          0.82200        2.70920       -0.15390
C          0.14670        3.76370       -1.47580
H          7.89750        1.48100        8.89900
H          9.58220        1.59690        8.26080
H          8.57530        0.15220        7.86320
H          5.78730        1.50510        7.48760
H          6.46380        0.17590        6.45320
H          2.73730        4.22950       -0.37040
H          1.50810        4.81490        0.80010
H         -0.20230        4.73190       -1.06070
H          0.91720        3.93980       -2.25180
H         -0.71440        3.24530       -1.94460
