60
mol77-D-0
C         -4.26170       -1.89380       -3.83460
S         -3.41200       -1.85940       -2.22580
C         -2.07040       -0.76960       -2.79540
Ge        -0.83770       -0.42970       -1.33230
Ge         0.82120        1.13100       -2.06120
N          1.51060        0.59290       -3.70670
N          0.04310        2.81520       -2.23170
Ge         2.57820        1.23920       -0.44370
N          4.03370        0.22080       -1.00630
N          3.10160        3.01350       -0.21910
Ge         0.23110       -2.44590       -0.62710
N          1.39280       -3.04390       -1.95540
N         -1.05210       -3.75310       -0.28470
Ge         1.44590       -1.98950        1.38120
N          0.48750       -2.63090        2.84490
N          3.11150       -2.82140        1.30470
Ge         1.74590        0.36920        1.61720
Ge        -0.36980        1.38890        2.05960
N         -0.24480        3.22850        1.78730
N         -0.87620        1.04110        3.81870
Ge        -1.98710        0.47450        0.55730
N         -2.92710       -0.88330        1.42110
N         -3.16760        1.80540        0.00260
C          2.99290        0.70490        3.06900
S          3.14990        2.49800        3.33850
C          4.34270        2.33390        4.70300
H         -3.59260       -2.32080       -4.61030
H         -5.16710       -2.52920       -3.75210
H         -4.56840       -0.86770       -4.12610
H         -2.48870        0.19930       -3.13880
H         -1.51350       -1.25160       -3.62560
H          0.69330        0.45310       -4.34160
H          1.94070       -0.34680       -3.55960
H          0.79860        3.46260       -2.54890
H         -0.22470        3.11760       -1.26880
H          4.76120        0.30550       -0.26190
H          3.72050       -0.77480       -1.00360
H          3.37600        3.36600       -1.16290
H          3.97030        2.99890        0.36000
H          0.85370       -3.03380       -2.84980
H          2.14050       -2.32210       -2.04720
H         -1.43200       -4.04980       -1.21100
H         -0.54290       -4.57590        0.10790
H          0.45000       -3.66990        2.74690
H          1.06300       -2.42710        3.69210
H          3.58800       -2.62120        2.21210
H          2.93190       -3.84970        1.27740
H         -1.20160        3.61880        1.93760
H          0.35750        3.60620        2.55170
H         -0.14910        1.47480        4.43040
H         -1.76340        1.56630        3.98430
H         -3.37280       -0.45120        2.26070
H         -3.70210       -1.16740        0.78190
H         -2.59570        2.52670       -0.49000
H         -3.78850        1.37210       -0.71670
H          2.60790        0.21540        3.98750
H          3.97830        0.27130        2.79930
H          4.61640        3.34500        5.06770
H          3.88970        1.76090        5.53880
H          5.25990        1.81940        4.34820
