36
mol75-C-1
C         -4.34860       -0.56000       -4.70920
S         -5.01180        0.02500       -3.11810
C         -3.64120        1.16890       -2.73720
Ge        -3.95190        2.05810       -1.03230
Ge        -4.39080        0.49570        0.72210
Cl        -5.84200       -0.96720        0.05890
Cl        -2.54460       -0.48050        1.29020
Ge        -5.28680        1.68480        2.59430
Cl        -7.44300        1.50210        2.60630
Cl        -4.46870        0.88180        4.42960
Ge        -2.08980        3.42760       -0.40540
Cl        -0.23260        2.32600       -0.55400
Cl        -2.02130        5.15830       -1.70250
Ge        -2.38130        4.13700        1.85990
Cl        -1.68280        6.17440        2.07210
Cl        -1.26490        2.83330        3.17780
Ge        -4.70270        3.99200        2.40210
Ge        -5.96190        4.95080        0.61360
Cl        -8.01490        5.22800        1.23860
Cl        -5.09090        6.85410        0.06340
Ge        -5.87300        3.46110       -1.25460
Cl        -7.65220        2.22960       -1.28760
Cl        -5.72980        4.59990       -3.08910
C         -5.09030        4.89050        4.08080
S         -4.82230        6.68080        3.89240
C         -5.28070        7.07590        5.60860
H         -4.22110        0.29050       -5.40650
H         -3.37490       -1.06880       -4.55260
H         -5.06300       -1.28220       -5.15440
H         -3.49530        1.93210       -3.52930
H         -2.70690        0.57770       -2.65010
H         -6.14800        4.69270        4.35260
H         -4.42010        4.48360        4.86630
H         -4.59700        6.55990        6.31450
H         -6.32810        6.76540        5.80490
H         -5.19590        8.17110        5.76270
