60
mol77-E-1
C          0.84150        2.45970       -5.07370
S          0.07220        3.49690       -3.78990
C          0.88570        2.68680       -2.37070
Ge         0.31880        3.52510       -0.70850
Ge        -2.04790        3.37380       -0.40310
N         -2.92970        3.87860       -1.96520
N         -2.51050        1.62440        0.04310
Ge        -2.68460        4.83720        1.37630
N         -3.95830        3.99520        2.44480
N         -3.39740        6.40420        0.66340
Ge         1.37910        2.48410        1.16690
N          1.08560        0.64440        1.11950
N          3.21090        2.82250        1.12120
Ge         0.44780        3.37290        3.18240
N         -0.71700        2.13030        3.93870
N          1.81840        3.76050        4.38360
Ge        -0.75440        5.37400        2.67960
Ge         0.65760        6.79830        1.38940
N          2.31360        6.95550        2.22890
N         -0.13020        8.47940        1.23230
Ge         0.92990        5.83570       -0.78080
N         -0.17580        6.72680       -1.98690
N          2.70470        6.00050       -1.32410
C         -1.26260        6.28770        4.31660
S         -2.20240        5.14900        5.38100
C         -2.44830        6.36620        6.71120
H          0.51660        1.40520       -4.95360
H          1.94590        2.52140       -5.00710
H          0.52170        2.82290       -6.07170
H          1.99280        2.72240       -2.43840
H          0.57350        1.62300       -2.34520
H         -2.67200        4.87330       -2.14840
H         -3.95110        3.86780       -1.74850
H         -1.88840        1.34260        0.83280
H         -2.25120        1.02530       -0.77130
H         -4.74820        3.73020        1.81530
H         -4.32660        4.72040        3.09960
H         -4.27710        6.13570        0.16890
H         -3.67490        7.00240        1.47310
H          1.69550        0.26290        0.36290
H          1.45090        0.26050        2.01920
H          3.62080        2.35900        1.96230
H          3.32860        3.85010        1.25920
H         -1.49650        1.99720        3.25690
H         -0.19980        1.22460        3.98770
H          1.36230        4.11760        5.25250
H          2.26770        2.85040        4.62900
H          2.68180        5.98590        2.34680
H          2.12720        7.32250        3.18870
H          0.45590        9.02240        0.55980
H         -1.05690        8.33320        0.77360
H         -1.12630        6.75460       -1.55530
H         -0.24590        6.11960       -2.83370
H          3.28540        5.51710       -0.60390
H          2.94110        7.01620       -1.26780
H         -1.88440        7.16910        4.05520
H         -0.34130        6.62070        4.83810
H         -3.02860        5.89470        7.53030
H         -1.46740        6.69810        7.11070
H         -3.01360        7.24110        6.32790
