72
mol72-E-1
C          0.39020       -2.73020       -5.80420
S          0.92030       -2.36550       -4.10230
C         -0.57500       -1.42590       -3.68280
Ge        -0.50120       -0.77270       -1.84840
Ge         0.68810        1.32280       -1.61780
Ge        -0.41920        3.19030       -2.63870
F         -0.61370        2.93730       -4.36350
F          0.58880        4.61080       -2.41800
F         -1.98410        3.48600       -1.91500
Ge         2.72760        1.19750       -2.87490
F          2.70170       -0.23630       -3.88600
F          4.15050        1.17050       -1.85280
F          2.82510        2.60780       -3.91600
Ge         1.01920        1.77880        0.73420
Ge         0.36410        3.99120        1.39190
F          1.81260        4.91110        1.76360
F         -0.51560        4.83690        0.13450
F         -0.62130        3.90050        2.84080
Ge         3.36910        1.78450        1.21710
F          4.12640        3.02500        0.23200
F          3.66240        2.18650        2.89910
F          4.10590        0.24050        0.85190
Ge        -2.72890       -0.51510       -0.97420
Ge        -3.95340       -2.56030       -1.17400
F         -3.29140       -3.80540       -0.13800
F         -5.62220       -2.26380       -0.71560
F         -3.91350       -3.09580       -2.84540
Ge        -4.03220        0.99990       -2.30500
F         -5.48370        0.16480       -2.83220
F         -3.14030        1.50180       -3.72800
F         -4.51600        2.41710       -1.39440
Ge        -2.55630        0.18610        1.32450
Ge        -3.89030       -1.15150        2.80380
F         -2.94550       -1.60890        4.20900
F         -4.52100       -2.58510        2.01750
F         -5.25190       -0.18610        3.34840
Ge        -3.50920        2.35500        1.66920
F         -3.24360        2.84740        3.33300
F         -5.23930        2.26100        1.38470
F         -2.81900        3.54570        0.59120
Ge        -0.24750        0.17260        2.02820
Ge         0.69790       -2.01780        1.70920
Ge         2.90110       -2.17640        2.65030
F          4.11230       -2.49730        1.42480
F          3.31830       -0.70500        3.50650
F          2.91770       -3.50420        3.79890
Ge        -0.51760       -3.65070        2.96560
F         -2.14120       -3.85490        2.34580
F         -0.58280       -3.15310        4.64780
F          0.33000       -5.18480        2.86260
Ge         0.66080       -2.51490       -0.64820
Ge        -0.31220       -4.65480       -1.12860
F         -1.09870       -5.35710        0.27130
F         -1.46130       -4.50500       -2.44540
F          0.96710       -5.74410       -1.63750
Ge         2.86650       -2.79540       -1.53540
F          3.58570       -4.22510       -0.81320
F          2.76700       -3.03740       -3.27100
F          3.88280       -1.41380       -1.19630
C         -0.32650        0.59560        3.92870
S          1.22520        1.34830        4.49530
C          0.67280        1.54050        6.21830
H         -0.55260       -3.31600       -5.79280
H          1.17760       -3.32720       -6.30810
H          0.23950       -1.78590       -6.36760
H         -1.46350       -2.08110       -3.78640
H         -0.68010       -0.55750       -4.36450
H         -0.52150       -0.33940        4.49240
H         -1.16270        1.30410        4.09590
H          1.48910        2.00260        6.81020
H         -0.21950        2.19930        6.26150
H          0.42980        0.54900        6.65410
