132
mol78-C-0
C          5.78250        0.00920       -2.61000
S          4.46930       -0.89110       -1.72900
C          3.37870        0.55820       -1.56250
Ge         1.68370        0.17240       -0.62500
Ge        -0.17390       -0.05070       -2.18110
N          0.27580       -1.02630       -3.75280
C          1.57790       -0.65630       -4.31360
C         -0.75520       -0.90380       -4.78950
N         -0.76840        1.70930       -2.55360
C          0.11160        2.40530       -3.49630
C         -2.16160        1.75900       -3.00940
Ge        -1.87460       -1.28250       -0.93090
N         -3.55890       -0.84120       -1.70390
C         -4.11250       -1.87630       -2.58150
C         -4.54290       -0.48090       -0.68850
N         -1.46560       -3.13550       -1.01970
C         -2.28380       -3.92550       -0.10010
C         -1.49700       -3.70880       -2.37060
Ge         1.85460       -1.91170        0.65240
N          1.34280       -3.28980       -0.55600
C          1.02620       -4.56320        0.09800
C          2.36420       -3.50380       -1.58120
N          3.68810       -2.08700        1.12470
C          4.01850       -3.31600        1.85010
C          4.17040       -0.90100        1.83580
Ge         0.23650       -1.71280        2.49760
N          0.88550       -0.61390        3.90460
C          1.88000       -1.29230        4.74260
C         -0.20790       -0.12340        4.75480
N         -0.31180       -3.41980        3.13950
C          0.82180       -4.28560        3.49010
C         -1.22340       -3.33280        4.28620
Ge        -1.64180       -0.54720        1.42090
Ge        -1.18110        1.87910        1.46380
N         -2.35240        2.64190        0.17360
C         -3.69070        2.90390        0.71650
C         -1.82610        3.87130       -0.42410
N         -1.45370        2.65050        3.19330
C         -1.12580        4.07720        3.23110
C         -2.78890        2.44750        3.77040
Ge         1.20200        2.10460        0.81830
N          1.42530        3.75960       -0.11320
C          2.61390        3.80920       -0.96650
C          1.37510        4.93670        0.76340
N          2.41020        1.91140        2.28020
C          1.91360        2.45180        3.54500
C          3.74820        2.44890        2.00630
C         -3.29100       -0.85320        2.46450
S         -3.96980       -2.53360        2.30730
C         -5.38220       -2.23160        3.41410
H          6.16810        0.83660       -1.97870
H          5.39070        0.41570       -3.56560
H          6.61410       -0.69060       -2.83190
H          3.93760        1.31880       -0.99450
H          3.15770        0.97610       -2.56310
H          2.37760       -0.88790       -3.60040
H          1.62190        0.41230       -4.59610
H          1.79030       -1.26510       -5.21910
H         -0.61310       -1.70140       -5.54930
H         -0.71410        0.07790       -5.30290
H         -1.76040       -1.04390       -4.36060
H         -0.05520        3.50030       -3.41570
H          1.17200        2.21920       -3.25260
H         -0.08220        2.10010       -4.54420
H         -2.43510        2.79390       -3.30890
H         -2.34320        1.09340       -3.87210
H         -2.83580        1.49160       -2.17760
H         -4.37060       -2.79500       -2.01830
H         -5.03810       -1.50120       -3.06890
H         -3.41480       -2.10890       -3.40180
H         -4.80630       -1.35420       -0.06000
H         -4.14510        0.33640       -0.07230
H         -5.46680       -0.09430       -1.16980
H         -1.97620       -3.70150        0.93670
H         -3.36330       -3.71880       -0.23540
H         -2.10790       -5.01330       -0.25010
H         -1.15050       -2.98620       -3.12150
H         -0.80410       -4.57290       -2.41680
H         -2.50530       -4.08210       -2.64540
H          0.24320       -4.41860        0.85540
H          1.91510       -5.04490        0.54040
H          0.60560       -5.27520       -0.64220
H          2.09310       -4.35980       -2.23690
H          2.40650       -2.62270       -2.23700
H          3.36010       -3.69780       -1.12950
H          5.11900       -3.38770        1.98480
H          3.73910       -4.20260        1.26040
H          3.55270       -3.34320        2.84910
H          5.11690       -1.10040        2.38400
H          3.41900       -0.51610        2.54840
H          4.40130       -0.11970        1.09370
H          2.47100       -0.53190        5.29530
H          1.40930       -1.97120        5.48440
H          2.58520       -1.87420        4.13190
H         -1.00640        0.32030        4.14320
H          0.17070        0.66690        5.43720
H         -0.64900       -0.92140        5.38120
H          1.57150       -4.29550        2.69030
H          1.32130       -3.97340        4.42740
H          0.46460       -5.33000        3.61550
H         -1.92630       -2.49510        4.17800
H         -0.67970       -3.20440        5.24640
H         -1.82240       -4.26570        4.34790
H         -3.71510        3.83670        1.31820
H         -4.04500        2.06310        1.33820
H         -4.41100        3.01430       -0.12180
H         -0.86470        3.67630       -0.92040
H         -2.51700        4.23260       -1.21580
H         -1.71950        4.67760        0.32390
H         -1.78750        4.66540        2.56560
H         -1.23270        4.46630        4.26710
H         -0.07680        4.23170        2.95480
H         -3.22720        1.50150        3.45420
H         -2.70160        2.41570        4.87670
H         -3.49700        3.26170        3.50860
H          2.62810        4.75500       -1.54950
H          2.56880        3.01400       -1.71770
H          3.54940        3.75130       -0.38030
H          1.73150        5.85070        0.24020
H          1.98360        4.80610        1.67310
H          0.33150        5.15420        1.03510
H          0.88480        2.11920        3.72440
H          2.52660        2.05440        4.38170
H          1.96880        3.55810        3.57530
H          4.12750        2.08990        1.03900
H          4.45850        2.09050        2.78190
H          3.76500        3.55620        2.01020
H         -3.06990       -0.67390        3.53340
H         -4.06870       -0.13730        2.14320
H         -5.98920       -3.15720        3.48600
H         -6.01720       -1.41640        3.00900
H         -5.02120       -1.95960        4.42790
