72
mol71-C-0
C          1.16370       -5.63930       -3.39630
S          1.31850       -3.84930       -3.11170
C          0.12740       -3.81780       -1.74640
Ge        -0.08740       -2.01760       -1.03800
Ge         2.07490       -0.77490       -1.00530
Si         3.68050       -2.26520       -0.05300
Cl         2.86070       -4.14010        0.31530
Cl         5.27250       -2.76590       -1.31930
Cl         4.67650       -1.60570        1.65380
Si         3.43400       -0.27750       -2.87850
Cl         3.85760       -1.94180       -4.08140
Cl         2.82770        1.21110       -4.18180
Cl         5.26080        0.44200       -2.14830
Ge         1.57410        1.39250        0.05110
Si         3.04350        1.73180        1.86760
Cl         2.90300        3.66840        2.65280
Cl         2.81980        0.42450        3.45270
Cl         5.04000        1.53690        1.26560
Si         2.27690        3.42770       -0.98570
Cl         4.35460        3.65980       -0.97790
Cl         1.50230        5.07020        0.05590
Cl         1.80770        3.85840       -2.95170
Ge        -0.99770       -2.37790        1.24330
Si        -2.60220       -4.14750        1.17480
Cl        -3.12050       -4.83890        3.07840
Cl        -1.81340       -5.79420        0.15070
Cl        -4.45490       -3.89450        0.29460
Si         0.31060       -3.53510        2.83180
Cl         0.64560       -5.52890        2.28500
Cl         2.15970       -2.70640        3.23910
Cl        -0.66950       -3.63950        4.67980
Ge        -1.61880       -0.17490        2.15220
Si        -0.74370        0.58480        4.24080
Cl         0.21800        2.41790        4.04660
Cl        -2.19120        1.04300        5.68440
Cl         0.49560       -0.73300        5.27420
Si        -3.81500       -0.42590        2.99940
Cl        -3.70300       -1.71630        4.64570
Cl        -4.67180        1.36600        3.67120
Cl        -5.24960       -1.31350        1.80080
Ge        -0.87510        1.48550        0.44600
Ge        -2.11310        1.29650       -1.67490
Si        -4.32010        2.06280       -1.39120
Cl        -4.34040        4.15700       -1.34170
Cl        -5.56440        1.46960       -2.96960
Cl        -5.23520        1.51070        0.37820
Si        -1.64380        2.84090       -3.38080
Cl        -1.23340        4.73290       -2.57940
Cl        -0.16970        2.21120       -4.70300
Cl        -3.29490        3.12460       -4.63710
Ge        -1.77090       -0.96830       -2.49830
Si        -1.17420       -1.26030       -4.75590
Cl        -1.59900       -3.22360       -5.35110
Cl        -2.25040        0.01620       -6.02220
Cl         0.83500       -1.03050       -5.18430
Si        -3.84410       -2.04040       -2.75860
Cl        -4.72230       -1.57930       -4.60270
Cl        -3.60910       -4.12250       -2.76880
Cl        -5.28820       -1.41960       -1.39960
C         -1.18510        3.31370        1.03760
S         -2.74190        3.45290        1.95480
C         -2.56900        5.23750        2.26170
H          1.83560       -5.93180       -4.22890
H          0.11870       -5.89240       -3.67190
H          1.45800       -6.19740       -2.48320
H          0.46670       -4.48890       -0.93610
H         -0.85720       -4.16610       -2.11120
H         -1.22730        3.96440        0.14390
H         -0.34260        3.63690        1.67610
H         -1.64430        5.43680        2.84250
H         -2.53450        5.78820        1.29840
H         -3.44360        5.58980        2.84560
