72
mol70-B-0
C         -0.30260        5.30680       -3.42190
S          0.56250        3.85950       -2.73870
C         -0.90200        3.20660       -1.88450
Ge        -0.46080        1.55990       -0.94740
Ge         1.28340        1.90640        0.69270
Si         3.36540        2.48330       -0.14720
F          3.23690        3.82420       -1.15840
F          4.36720        2.88120        1.14920
F          4.06940        1.20940       -0.98110
Si         0.81550        3.77830        1.98340
F         -0.49030        4.61400        1.32650
F          2.15560        4.80130        1.97740
F          0.47970        3.36120        3.57850
Ge         1.51030       -0.11670        1.97750
Si         3.72500       -0.76910        2.18590
F          4.51570        0.31940        3.20180
F          4.52250       -0.79480        0.70860
F          3.78540       -2.30530        2.87730
Si         0.98630        0.20740        4.20600
F          1.07590       -1.26810        5.01610
F          2.10900        1.26830        4.88160
F         -0.55110        0.85780        4.38260
Ge         0.16980       -0.15600       -2.52500
Si        -1.53450       -0.57570       -4.03220
F         -2.49790        0.79790       -4.19290
F         -0.86040       -0.94640       -5.53250
F         -2.46350       -1.88560       -3.53860
Si         1.84830        0.52260       -3.97610
F          1.13950        1.29340       -5.29770
F          2.90790        1.60430       -3.25190
F          2.69660       -0.82620       -4.52620
Ge         0.75990       -2.15300       -1.31470
Si         3.01230       -2.62740       -1.54960
F          3.88880       -1.23170       -1.87620
F          3.21680       -3.68970       -2.84280
F          3.58450       -3.36280       -0.14530
Si        -0.16520       -4.06030       -2.25820
F          0.86820       -5.36080       -1.96910
F         -0.31680       -3.84800       -3.92360
F         -1.66180       -4.42950       -1.59350
Ge         0.16390       -1.86810        1.00790
Ge        -2.16640       -1.25850        1.23130
Si        -2.80610       -1.32380        3.46190
F         -1.58460       -2.02200        4.38690
F         -4.19110       -2.27350        3.61100
F         -3.15690        0.21330        4.04990
Si        -3.69480       -2.73830        0.31120
F         -5.24410       -2.24320        0.75520
F         -3.43570       -4.29240        0.90710
F         -3.60960       -2.75170       -1.36410
Ge        -2.47440        0.89690        0.20430
Si        -4.30900        0.92940       -1.21240
F         -5.71190        0.83950       -0.28180
F         -4.31600        2.37830       -2.07370
F         -4.30240       -0.35670       -2.29180
Si        -3.13240        2.50090        1.73400
F         -2.05400        2.59910        3.01660
F         -4.65540        2.09290        2.33090
F         -3.23350        3.99520        0.96040
C          0.58360       -3.47970        2.01330
S         -0.42840       -4.87080        1.42870
C          0.28360       -6.06850        2.59870
H          0.41320        5.90670       -4.02030
H         -0.69980        5.93720       -2.59920
H         -1.13430        4.97880       -4.07970
H         -1.70020        2.98860       -2.62290
H         -1.27390        3.94790       -1.14850
H          0.38600       -3.29200        3.08800
H          1.65860       -3.71310        1.87180
H         -0.19400       -7.05680        2.43960
H          0.09390       -5.74140        3.64220
H          1.37600       -6.16560        2.42760
