60
mol77-C-1
C         -1.25120        6.42940        2.22980
S         -1.03690        5.12150        0.98290
C         -0.74370        3.80500        2.20530
Ge        -0.44650        2.12130        1.28390
Ge         1.56670        2.20780        0.00230
N          1.62450        3.79860       -0.96590
N          3.03260        2.10980        1.14860
Ge         1.59550        0.34710       -1.49690
N          3.32330       -0.34020       -1.61540
N          1.01350        0.89220       -3.18110
Ge        -0.28750        0.31360        2.83710
N          0.88280        0.75780        4.21750
N         -1.97730       -0.05080        3.53280
Ge         0.53530       -1.60790        1.67850
N         -0.34150       -3.13310        2.29280
N          2.36960       -1.77320        1.96220
Ge         0.12030       -1.33180       -0.65560
Ge        -2.13120       -0.58400       -0.93250
N         -2.62510       -0.68970       -2.72610
N         -3.26200       -1.64670        0.09910
Ge        -2.26850        1.68510       -0.19490
N         -2.15730        2.82890       -1.66180
N         -3.87940        1.95750        0.70090
C          0.40960       -3.01930       -1.57260
S          0.25600       -2.76710       -3.36870
C          0.58470       -4.50760       -3.78610
H         -1.45370        7.39060        1.71480
H         -0.32700        6.53410        2.83550
H         -2.10910        6.18870        2.89180
H         -1.62890        3.69690        2.86610
H          0.15260        4.04120        2.81560
H          1.63740        4.57390       -0.26630
H          2.54640        3.81750       -1.45590
H          3.87980        2.02400        0.54410
H          2.94310        1.20990        1.67080
H          3.91360        0.40620       -2.04570
H          3.28520       -1.12820       -2.29960
H          0.04160        1.25370       -3.05810
H          1.60600        1.70800       -3.45290
H          0.41070        1.49690        4.78440
H          0.95900       -0.08620        4.82780
H         -1.85040       -0.79500        4.25420
H         -2.28560        0.81040        4.03650
H          0.07360       -3.94330        1.78120
H         -0.08100       -3.24390        3.29790
H          2.67480       -2.63280        1.45370
H          2.49970       -1.96130        2.98110
H         -2.69570       -1.70540       -2.95800
H         -3.59090       -0.29810       -2.79370
H         -2.94710       -1.54260        1.08930
H         -3.07090       -2.63660       -0.17340
H         -3.00620        2.65340       -2.24400
H         -2.24010        3.80130       -1.29010
H         -3.90060        2.96400        0.97890
H         -4.63970        1.82160       -0.00190
H          1.42740       -3.38700       -1.32680
H         -0.34780       -3.75070       -1.22200
H          1.59270       -4.80230       -3.42680
H          0.54660       -4.62880       -4.88800
H         -0.18460       -5.16210       -3.32600
