156
mol82-E-0
C         -3.58160       -0.69500       -5.97010
S         -3.15590       -1.28680       -4.30330
C         -1.94210        0.03220       -3.98570
Ge        -1.12360       -0.13500       -2.21300
Ge         1.24130        0.27530       -2.52750
C          1.96120       -1.01440       -3.77140
C          2.67560       -2.13070       -3.32540
C          3.19130       -3.05330       -4.23940
C          2.99410       -2.86370       -5.60940
C          2.27820       -1.75250       -6.06340
C          1.76310       -0.82990       -5.14760
C          1.57240        1.96790       -3.39980
C          2.89060        2.41650       -3.55930
C          3.14810        3.64330       -4.17770
C          2.09030        4.41870       -4.65920
C          0.77630        3.96240       -4.52900
C          0.51890        2.73900       -3.90360
Ge         2.35720        0.28330       -0.38190
C          3.90850       -0.87000       -0.39360
C          4.06610       -1.87660        0.56660
C          5.20040       -2.69310        0.55300
C          6.18370       -2.50850       -0.42200
C          6.03880       -1.49750       -1.37540
C          4.90910       -0.67470       -1.35600
C          3.03940        2.06110       -0.06760
C          4.28940        2.25710        0.53690
C          4.77050        3.55290        0.75080
C          4.01070        4.65670        0.35210
C          2.76940        4.46410       -0.25950
C          2.28760        3.16880       -0.46280
Ge        -2.06760        1.53430       -0.71930
C         -1.91850        3.28070       -1.55180
C         -2.73800        3.57590       -2.65300
C         -2.67380        4.82880       -3.26940
C         -1.79830        5.80220       -2.78370
C         -0.99360        5.52390       -1.67720
C         -1.06120        4.27190       -1.05980
C         -3.98790        1.39510       -0.58570
C         -4.69330        0.42270       -1.30140
C         -6.08620        0.35280       -1.21290
C         -6.78290        1.26710       -0.41860
C         -6.08640        2.25940        0.27680
C         -4.69330        2.33040        0.18500
Ge        -1.02950        1.30490        1.47560
C         -0.40620        3.01410        2.11960
C          0.93700        3.21440        2.45290
C          1.36610        4.45120        2.94230
C          0.44860        5.49070        3.11560
C         -0.90040        5.28820        2.81150
C         -1.32910        4.04970        2.32510
C         -2.21640        0.81480        2.93030
C         -1.76260        0.96230        4.25090
C         -2.59360        0.63740        5.32690
C         -3.88960        0.17310        5.09330
C         -4.35580        0.04170        3.78390
C         -3.52510        0.36990        2.70880
Ge         0.75960       -0.33430        1.33060
Ge        -0.14890       -2.50730        0.77200
C          1.27430       -3.81190        0.73110
C          1.83320       -4.23680       -0.47820
C          2.86130       -5.18290       -0.48990
C          3.33790       -5.71080        0.71270
C          2.78720       -5.28890        1.92600
C          1.75810       -4.34240        1.93600
C         -1.32610       -3.17590        2.15150
C         -2.02780       -4.37090        1.94140
C         -2.89200       -4.86330        2.92340
C         -3.04320       -4.17510        4.12980
C         -2.32380       -2.99920        4.35610
C         -1.46550       -2.50300        3.37050
Ge        -1.39230       -2.36090       -1.29710
C         -0.85180       -3.73980       -2.53950
C         -0.90270       -5.08450       -2.14640
C         -0.51920       -6.09370       -3.03420
C         -0.09970       -5.76580       -4.32610
C         -0.06840       -4.42890       -4.73030
C         -0.44270       -3.41920       -3.83940
C         -3.24870       -2.71750       -0.90750
C         -3.81080       -2.23480        0.27540
C         -5.14800       -2.49470        0.58490
C         -5.93510       -3.23710       -0.29910
C         -5.38000       -3.72490       -1.48580
C         -4.03820       -3.47110       -1.78810
C          1.60790       -0.53750        3.08540
S          3.22750        0.29020        3.15980
C          3.55230       -0.17930        4.88720
H         -3.98760        0.33660       -5.91650
H         -2.68330       -0.71270       -6.62170
H         -4.35330       -1.36290       -6.40440
H         -1.13910       -0.01850       -4.74770
H         -2.44360        1.01460       -4.06230
H          2.83080       -2.29210       -2.27580
H          3.73970       -3.91630       -3.88460
H          3.39030       -3.57940       -6.31780
H          2.12160       -1.60660       -7.12420
H          1.21310        0.02730       -5.51250
H          3.71660        1.82610       -3.19220
H          4.16710        3.99180       -4.28440
H          2.28900        5.36770       -5.13990
H         -0.04220        4.55530       -4.91510
H         -0.49710        2.39630       -3.82080
H          3.31970       -2.02870        1.32830
H          5.31690       -3.46880        1.29830
H          7.05950       -3.14410       -0.43500
H          6.80270       -1.34960       -2.12770
H          4.81010        0.10500       -2.09640
H          4.89040        1.41320        0.84720
H          5.73290        3.70120        1.22300
H          4.38370        5.65930        0.51620
H          2.17980        5.31590       -0.57220
H          1.33710        3.01830       -0.94140
H         -3.43740        2.84170       -3.02830
H         -3.30520        5.04570       -4.12110
H         -1.74630        6.77190       -3.26160
H         -0.31930        6.27930       -1.29480
H         -0.44170        4.08870       -0.20600
H         -4.16930       -0.28490       -1.91830
H         -6.62450       -0.41140       -1.75860
H         -7.86140        1.21140       -0.34770
H         -6.62560        2.97470        0.88400
H         -4.16410        3.10670        0.71980
H          1.65230        2.42200        2.32680
H          2.40990        4.60350        3.18480
H          0.78120        6.44940        3.49190
H         -1.61380        6.08910        2.95520
H         -2.37590        3.90010        2.10050
H         -0.76990        1.34140        4.45020
H         -2.23350        0.74910        6.34130
H         -4.53290       -0.08060        5.92580
H         -5.36230       -0.31140        3.60060
H         -3.91130        0.27080        1.71540
H          1.48060       -3.83640       -1.40950
H          3.29030       -5.50300       -1.43050
H          4.13630       -6.44130        0.70480
H          3.15820       -5.69430        2.85830
H          1.33890       -4.02640        2.88200
H         -1.91870       -4.91220        1.01360
H         -3.44290       -5.77840        2.74950
H         -3.71060       -4.55680        4.89140
H         -2.42900       -2.47390        5.29610
H         -0.91020       -1.60250        3.56410
H         -1.22780       -5.35100       -1.15180
H         -0.54950       -7.12930       -2.72170
H          0.19490       -6.54680       -5.01480
H          0.24610       -4.17490       -5.73410
H         -0.41780       -2.39380       -4.16860
H         -3.20120       -1.67160        0.95830
H         -5.57310       -2.11800        1.50590
H         -6.97280       -3.43490       -0.06460
H         -5.98850       -4.30160       -2.17020
H         -3.62210       -3.85840       -2.70810
H          0.94480       -0.11020        3.86030
H          1.74040       -1.61910        3.28670
H          4.53430        0.23410        5.19540
H          3.58200       -1.28480        4.98230
H          2.76380        0.23470        5.54970
