156
mol82-C-1
C          6.23940       -1.33310        1.03370
S          4.79740       -0.91530        0.00640
C          3.63160       -0.86670        1.40380
Ge         1.81040       -0.43240        0.82560
Ge         0.15170       -1.77420        1.97200
C          0.38650       -1.75650        3.89070
C          1.46920       -1.09160        4.47850
C          1.63290       -1.10010        5.86650
C          0.71360       -1.77260        6.67540
C         -0.36200       -2.44900        6.09430
C         -0.52040       -2.44860        4.70560
C          0.29690       -3.62710        1.45230
C         -0.27990       -4.05560        0.25560
C         -0.20050       -5.39530       -0.13210
C          0.46860       -6.31570        0.67850
C          1.04870       -5.89530        1.87900
C          0.95900       -4.55510        2.26900
Ge        -2.05000       -0.98990        1.35000
C         -3.09400       -2.50070        0.74740
C         -3.75900       -2.47410       -0.48370
C         -4.50720       -3.57700       -0.90530
C         -4.59930       -4.71100       -0.09470
C         -3.95560       -4.73550        1.14510
C         -3.21400       -3.62950        1.56960
C         -3.07690       -0.30350        2.83430
C         -4.47580       -0.25810        2.74260
C         -5.23600        0.23430        3.80770
C         -4.60320        0.68340        4.97010
C         -3.20990        0.64310        5.06490
C         -2.45140        0.15110        3.99950
Ge         1.45480        1.88650        1.42280
C          2.81920        3.04060        0.68680
C          3.93600        2.51130        0.03030
C          4.91180        3.36100       -0.49860
C          4.77880        4.74560       -0.36860
C          3.67720        5.27960        0.30470
C          2.70580        4.42920        0.84030
C          1.67020        2.10300        3.32960
C          0.56240        2.18490        4.17910
C          0.73610        2.34350        5.55640
C          2.02360        2.42090        6.09340
C          3.13620        2.33640        5.25170
C          2.96070        2.17820        3.87360
Ge        -0.69850        2.61690        0.59900
C         -0.39910        3.97510       -0.73900
C          0.67530        3.85000       -1.62130
C          0.91970        4.82930       -2.58700
C          0.07870        5.94110       -2.67900
C         -0.99940        6.07470       -1.79890
C         -1.23580        5.09720       -0.82690
C         -1.72560        3.48080        1.99040
C         -1.17840        4.57310        2.67810
C         -1.90980        5.21110        3.68390
C         -3.19920        4.77250        3.99570
C         -3.75790        3.69880        3.29840
C         -3.02290        3.05460        2.29920
Ge        -1.85400        0.71510       -0.35710
Ge        -0.64110       -0.15960       -2.27340
C         -0.62580        1.07540       -3.75630
C         -1.26690        2.31520       -3.67060
C         -1.26790        3.18650       -4.76330
C         -0.63960        2.81440       -5.95450
C         -0.02170        1.56500       -6.05620
C         -0.02400        0.69280       -4.96370
C         -1.66480       -1.60880       -3.05880
C         -2.84800       -1.30240       -3.74990
C         -3.60440       -2.31590       -4.34550
C         -3.17930       -3.64370       -4.26560
C         -1.99390       -3.95520       -3.59670
C         -1.23680       -2.94060       -3.00460
Ge         1.63250       -0.70940       -1.58280
C          3.04930        0.30250       -2.43950
C          4.37090       -0.15790       -2.32700
C          5.41760        0.53240       -2.94470
C          5.15180        1.68290       -3.69010
C          3.83830        2.13710       -3.82330
C          2.79220        1.44410       -3.20800
C          2.10840       -2.49090       -2.15220
C          2.50800       -3.46190       -1.22850
C          2.87410       -4.73950       -1.66120
C          2.85700       -5.04750       -3.02400
C          2.48610       -4.07300       -3.95460
C          2.12320       -2.79440       -3.52110
C         -3.68660        1.16210       -0.88800
S         -3.92750        2.95810       -1.06180
C         -5.67880        2.82550       -1.53570
H          6.07430       -2.30430        1.54520
H          6.41550       -0.53640        1.78610
H          7.13400       -1.41740        0.38340
H          3.97050       -0.10900        2.13440
H          3.61420       -1.85730        1.90010
H          2.18980       -0.57260        3.86880
H          2.47220       -0.58500        6.31500
H          0.83820       -1.77480        7.75040
H         -1.07150       -2.97540        6.71940
H         -1.35410       -2.97750        4.26840
H         -0.80190       -3.34790       -0.36230
H         -0.65340       -5.71750       -1.06060
H          0.53670       -7.35310        0.37770
H          1.56550       -6.60800        2.50840
H          1.40940       -4.24580        3.20230
H         -3.70660       -1.60430       -1.11410
H         -5.01790       -3.55160       -1.85880
H         -5.17540       -5.56620       -0.42320
H         -4.03220       -5.61040        1.77750
H         -2.72190       -3.66010        2.53020
H         -4.97840       -0.60520        1.84940
H         -6.31500        0.26860        3.73170
H         -5.19120        1.06730        5.79350
H         -2.71680        0.99630        5.96130
H         -1.38170        0.13080        4.08470
H          4.05810        1.44730       -0.06830
H          5.77220        2.94630       -1.00680
H          5.53240        5.40320       -0.78170
H          3.57650        6.35170        0.41290
H          1.85960        4.85390        1.35920
H         -0.43250        2.12200        3.78150
H         -0.12710        2.40220        6.20670
H          2.15910        2.54060        7.16040
H          4.13400        2.39250        5.66690
H          3.83050        2.11680        3.23290
H          1.32640        2.99860       -1.54290
H          1.75710        4.72380       -3.26440
H          0.26240        6.69820       -3.43000
H         -1.65030        6.93640       -1.86830
H         -2.07130        5.21640       -0.15090
H         -0.18410        4.92320        2.44430
H         -1.47800        6.04660        4.21930
H         -3.76690        5.26790        4.77260
H         -4.76050        3.36540        3.53190
H         -3.47020        2.23160        1.76740
H         -1.75640        2.61220       -2.76070
H         -1.75410        4.15040       -4.68510
H         -0.63790        3.49010       -6.79980
H          0.45630        1.27130       -6.98170
H          0.44930       -0.27490       -5.05480
H         -3.18010       -0.27750       -3.84060
H         -4.51790       -2.07110       -4.87150
H         -3.76530       -4.42920       -4.72450
H         -1.65890       -4.98270       -3.53950
H         -0.32620       -3.20550       -2.50790
H          4.59200       -1.05920       -1.77230
H          6.43390        0.17330       -2.84800
H          5.96180        2.21930       -4.16690
H          3.62910        3.02470       -4.40630
H          1.79320        1.80730       -3.33550
H          2.52810       -3.23680       -0.17760
H          3.16870       -5.49030       -0.93940
H          3.13780       -6.03760       -3.35880
H          2.48260       -4.30710       -5.01110
H          1.84590       -2.04500       -4.24910
H         -4.37930        0.77320       -0.11540
H         -3.91550        0.66930       -1.85120
H         -6.08240        3.84270       -1.71560
H         -5.77800        2.22940       -2.46680
H         -6.25930        2.34770       -0.71930
