156
mol82-A-2
C          1.45760        4.52890        4.34130
S          1.98200        3.22840        3.18230
C          0.29980        2.88520        2.57680
Ge         0.28220        1.47140        1.22000
Ge         0.10100        2.36940       -1.02210
C         -1.62480        3.19110       -1.28920
C         -2.72970        2.39340       -1.59070
C         -3.98480        2.96870       -1.80360
C         -4.14090        4.35370       -1.70660
C         -3.03930        5.16020       -1.40570
C         -1.78210        4.58190       -1.20250
C          1.39510        3.76400       -1.36470
C          2.25340        4.21530       -0.35500
C          3.17400        5.23430       -0.61490
C          3.24250        5.80750       -1.88690
C          2.38020        5.37080       -2.89570
C          1.45290        4.35830       -2.63320
Ge         0.32350        0.55680       -2.60760
C          1.85540        0.72750       -3.77080
C          1.86460        0.05510       -5.00180
C          2.96450        0.16800       -5.85790
C          4.06020        0.95320       -5.48920
C          4.05690        1.62220       -4.26270
C          2.95730        1.50820       -3.40810
C         -1.17260        0.62080       -3.82940
C         -1.96110       -0.51100       -4.06560
C         -3.04140       -0.44600       -4.95030
C         -3.33550        0.75050       -5.60870
C         -2.53910        1.87810       -5.39370
C         -1.45430        1.81040       -4.51480
Ge         2.41080        0.33470        1.41200
C          3.84480        1.59320        1.11410
C          4.50490        1.66150       -0.11670
C          5.54180        2.57690       -0.31470
C          5.92510        3.43230        0.72130
C          5.26830        3.37290        1.95340
C          4.23110        2.45610        2.15010
C          2.73610       -0.29340        3.21060
C          3.87110       -1.07200        3.47560
C          4.11620       -1.54410        4.76820
C          3.23950       -1.22280        5.80740
C          2.12260       -0.42280        5.55450
C          1.87360        0.04280        4.26010
Ge         2.45680       -1.56300       -0.08670
C          2.55770       -3.16770        0.98110
C          3.35240       -4.25130        0.58020
C          3.41840       -5.40360        1.37030
C          2.70040       -5.47390        2.56770
C          1.91570       -4.39180        2.97440
C          1.84450       -3.24600        2.17830
C          4.05760       -1.56270       -1.17020
C          3.98350       -1.63600       -2.56620
C          5.15080       -1.64900       -3.33490
C          6.39950       -1.58740       -2.71180
C          6.48100       -1.52690       -1.31830
C          5.31390       -1.52370       -0.54910
Ge         0.43670       -1.55110       -1.42270
Ge        -1.52940       -1.82520       -0.01990
C         -1.60950       -3.57270        0.79520
C         -2.71910       -3.91460        1.58160
C         -2.80570       -5.18300        2.16290
C         -1.79520       -6.12300        1.94320
C         -0.70340       -5.79700        1.13430
C         -0.61620       -4.52750        0.55630
C         -3.10320       -1.91450       -1.15160
C         -4.06510       -0.89770       -1.17470
C         -5.19420       -1.00570       -1.99130
C         -5.38050       -2.14260       -2.78020
C         -4.43880       -3.17320       -2.74800
C         -3.30840       -3.06250       -1.93340
Ge        -1.53410       -0.07700        1.68060
C         -1.39670       -0.67990        3.51980
C         -1.05930       -1.99770        3.85070
C         -0.98640       -2.39850        5.18760
C         -1.26860       -1.48740        6.20730
C         -1.62820       -0.17630        5.88840
C         -1.69750        0.22430        4.55100
C         -3.24900        0.80560        1.74970
C         -4.39270        0.06170        2.07350
C         -5.64070        0.68700        2.14970
C         -5.74840        2.06210        1.92440
C         -4.60630        2.81240        1.63290
C         -3.35960        2.18570        1.55370
C          0.46040       -2.94500       -2.79990
S          1.68130       -4.24470       -2.43360
C          1.31160       -5.21720       -3.92600
H          0.76040        4.10830        5.09560
H          2.35080        4.93030        4.86210
H          0.96180        5.35440        3.78940
H         -0.33580        2.56350        3.42560
H         -0.12660        3.80900        2.14340
H         -2.60580        1.32910       -1.67380
H         -4.83440        2.34140       -2.03950
H         -5.11330        4.80140       -1.86540
H         -3.15890        6.23330       -1.33210
H         -0.93880        5.21930       -0.97420
H          2.20980        3.78750        0.63270
H          3.83420        5.57940        0.17000
H          3.95890        6.59330       -2.08900
H          2.42820        5.81810       -3.88010
H          0.78990        4.03160       -3.42020
H          1.02170       -0.55380       -5.30050
H          2.96740       -0.35380       -6.80600
H          4.91270        1.03850       -6.15020
H          4.90680        2.22580       -3.97190
H          2.97090        2.02400       -2.46700
H         -1.74090       -1.44230       -3.57480
H         -3.64870       -1.32370       -5.12780
H         -4.17440        0.80150       -6.29050
H         -2.76100        2.80370       -5.90860
H         -0.84580        2.68830       -4.35790
H          4.21790        1.01410       -0.92330
H          6.04450        2.62510       -1.27200
H          6.72600        4.14380        0.56780
H          5.56190        4.03770        2.75530
H          3.73260        2.41870        3.10970
H          4.55660       -1.32630        2.68120
H          4.98610       -2.15770        4.96390
H          3.42960       -1.58640        6.80880
H          1.45140       -0.16110        6.36170
H          1.01570        0.66680        4.08350
H          3.91660       -4.21040       -0.34140
H          4.02790       -6.24060        1.05540
H          2.75270       -6.36490        3.17960
H          1.36090       -4.44120        3.90220
H          1.24860       -2.40910        2.49380
H          3.02870       -1.68930       -3.06200
H          5.08700       -1.70670       -4.41360
H          7.30290       -1.59260       -3.30760
H          7.44800       -1.48510       -0.83400
H          5.39020       -1.47960        0.52710
H         -3.50990       -3.19710        1.75060
H         -3.65700       -5.43780        2.78060
H         -1.86150       -7.10500        2.39310
H          0.07620       -6.52630        0.95640
H          0.22740       -4.29020       -0.06630
H         -3.95240       -0.02060       -0.57130
H         -5.92620       -0.20880       -2.00940
H         -6.25490       -2.22650       -3.41220
H         -4.58600       -4.05950       -3.35150
H         -2.60080       -3.87950       -1.90390
H         -0.84910       -2.71910        3.08830
H         -0.71410       -3.41700        5.43210
H         -1.21260       -1.79780        7.24240
H         -1.85660        0.52900        6.67690
H         -1.99930        1.23690        4.32150
H         -4.31840       -1.00100        2.25750
H         -6.52300        0.10640        2.38590
H         -6.71430        2.54660        1.98300
H         -4.68640        3.87880        1.46610
H         -2.48810        2.77470        1.33150
H         -0.54490       -3.40000       -2.87260
H          0.70900       -2.47290       -3.77110
H          0.24790       -5.53400       -3.92100
H          1.95560       -6.12010       -3.93760
H          1.52080       -4.61490       -4.83450
