48
mol81-A-2
C          5.47770       -2.93950       -0.61500
S          4.10070       -1.87260       -1.14130
C          3.27290       -1.89670        0.47970
Ge         1.65390       -0.82650        0.39710
Ge         0.10050       -1.83500       -1.10770
C          0.99010       -2.32690       -2.70390
N          1.53490       -2.62570       -3.67980
C         -0.65940       -3.35890       -0.28230
N         -1.12440       -4.28910        0.22470
Ge        -1.61460       -0.24350       -1.59430
C         -1.19740        0.67350       -3.19640
N         -0.94040        1.23560       -4.17440
C         -3.28060       -1.12610       -1.75700
N         -4.29920       -1.66600       -1.85440
Ge         2.11880        1.38400       -0.38040
C          2.44650        1.32650       -2.24330
N          2.64450        1.28960       -3.38250
C          3.62020        2.09430        0.52680
N          4.53720        2.52810        1.08300
Ge         0.20370        2.74560        0.05690
C         -0.03440        3.99250       -1.34640
N         -0.18100        4.75340       -2.20540
C          0.43000        3.64770        1.70510
N          0.56730        4.19680        2.71410
Ge        -1.71140        1.32660        0.20010
Ge        -1.61160        0.11610        2.25730
C         -2.80130       -1.35270        2.16710
N         -3.52770       -2.25120        2.10940
C         -2.07370        1.24540        3.70390
N         -2.35500        1.93700        4.58760
Ge         0.62440       -0.67760        2.54650
C          0.60140       -2.38670        3.35850
N          0.58720       -3.43240        3.85310
C          1.59760        0.54390        3.61540
N          2.19310        1.29210        4.26640
C         -3.34960        2.36310        0.07420
S         -3.34730        3.66050        1.35080
C         -4.97090        4.33150        0.87600
H          6.03550       -2.46010        0.21620
H          5.09140       -3.92740       -0.28790
H          6.16700       -3.08900       -1.47090
H          2.99990       -2.93660        0.75500
H          3.94270       -1.46800        1.25390
H         -4.21430        1.68310        0.22050
H         -3.40170        2.82350       -0.93430
H         -5.21840        5.18410        1.54090
H         -4.94300        4.69080       -0.17380
H         -5.75280        3.55150        0.98570
