156
mol82-C-0
C          5.58210       -2.31590        2.42390
S          3.78890       -2.42220        2.13650
C          3.67650       -0.80200        1.31400
Ge         1.84350       -0.38540        0.76040
Ge         0.21280       -1.73480        1.93760
C          0.47550       -1.70560        3.85250
C          1.56120       -1.02900        4.42120
C          1.74520       -1.02920        5.80660
C          0.84340       -1.70510        6.63220
C         -0.23510       -2.39310        6.07020
C         -0.41370       -2.40100        4.68400
C          0.36560       -3.58910        1.42480
C         -0.22510       -4.02830        0.23890
C         -0.14040       -5.36920       -0.14340
C          0.54800       -6.28010        0.66190
C          1.14210       -5.84900        1.85160
C          1.04710       -4.50760        2.23630
Ge        -2.00420       -0.97160        1.34410
C         -3.04440       -2.49380        0.76420
C         -3.72750       -2.47880       -0.45710
C         -4.47270       -3.58980       -0.86230
C         -4.54370       -4.72050       -0.04490
C         -3.88180       -4.73360        1.18550
C         -3.14310       -3.61940        1.59360
C         -3.01480       -0.28610        2.83990
C         -4.41520       -0.25250        2.76840
C         -5.16380        0.23900        3.84220
C         -4.51770        0.69910        4.99290
C         -3.12290        0.67060        5.06750
C         -2.37610        0.17940        3.99350
Ge         1.47770        1.93350        1.35140
C          2.82170        3.09490        0.58990
C          3.93310        2.57150       -0.08040
C          4.89400        3.42640       -0.62770
C          4.75160        4.81040       -0.50250
C          3.65570        5.33890        0.18430
C          2.69910        4.48330        0.73820
C          1.71910        2.16140        3.25370
C          0.62330        2.23850        4.11900
C          0.81580        2.40540        5.49290
C          2.11030        2.49600        6.01050
C          3.21110        2.41630        5.15300
C          3.01680        2.24970        3.77840
Ge        -0.69340        2.64230        0.55570
C         -0.42470        3.99610       -0.79320
C          0.63770        3.87530       -1.69050
C          0.86000        4.85170       -2.66450
C          0.00860        5.95610       -2.74960
C         -1.05760        6.08540       -1.85450
C         -1.27170        5.11090       -0.87430
C         -1.70700        3.50470        1.95780
C         -1.15880        4.60490        2.63200
C         -1.88060        5.24200        3.64530
C         -3.16170        4.79450        3.97810
C         -3.72170        3.71280        3.29430
C         -2.99620        3.06960        2.28760
Ge        -1.84700        0.72640       -0.37400
Ge        -0.65510       -0.14810       -2.30360
C         -0.67170        1.07960       -3.79260
C         -1.32160        2.31450       -3.70360
C         -1.34570        3.18030       -4.80040
C         -0.73180        2.80740       -5.99880
C         -0.10530        1.56250       -6.10350
C         -0.08450        0.69580       -5.00680
C         -1.67840       -1.60950       -3.06680
C         -2.87400       -1.31620       -3.74200
C         -3.63060       -2.33880       -4.32140
C         -3.19350       -3.66260       -4.24130
C         -1.99600       -3.96120       -3.58830
C         -1.23860       -2.93740       -3.01230
Ge         1.63270       -0.67590       -1.64370
C          3.02850        0.34310       -2.52600
C          4.35530       -0.10600       -2.43070
C          5.38720        0.58970       -3.06700
C          5.10110        1.73430       -3.81410
C          3.78210        2.17710       -3.93020
C          2.75080        1.47880       -3.29620
C          2.11480       -2.45630       -2.21130
C          2.53580       -3.41940       -1.28880
C          2.90600       -4.69620       -1.72050
C          2.87160       -5.01110       -3.08140
C          2.47910       -4.04440       -4.01120
C          2.11210       -2.76660       -3.57870
C         -3.69090        1.15570       -0.88030
S         -3.94890        2.94890       -1.05920
C         -5.70590        2.79970       -1.50680
H          5.81360       -1.44210        3.06800
H          6.11870       -2.22360        1.45680
H          5.92120       -3.23940        2.93630
H          4.33350       -0.79900        0.42450
H          4.01890       -0.01280        2.01250
H          2.26850       -0.50720        3.79840
H          2.58680       -0.50510        6.24020
H          0.98360       -1.70090        7.70520
H         -0.93100       -2.92210        6.70820
H         -1.24930       -2.93880        4.26170
H         -0.76190       -3.32790       -0.37470
H         -0.60420       -5.69980       -1.06360
H          0.62010       -7.31840        0.36510
H          1.67390       -6.55430        2.47690
H          1.50860       -4.19000        3.16140
H         -3.69150       -1.61180       -1.09250
H         -4.99750       -3.57330       -1.80830
H         -5.11750       -5.58200       -0.36070
H         -3.94190       -5.60590        1.82320
H         -2.63680       -3.64120        2.54700
H         -4.92790       -0.60820        1.88450
H         -6.24400        0.26410        3.78180
H         -5.09680        1.08230        5.82300
H         -2.61970        1.03220        5.95490
H         -1.30510        0.16820        4.06310
H          4.06250        1.50800       -0.17550
H          5.75030        3.01620       -1.14630
H          5.49370        5.47210       -0.92980
H          3.54780        6.41070        0.28870
H          1.85720        4.90370        1.26730
H         -0.37680        2.16550        3.73630
H         -0.03830        2.46040        6.15540
H          2.26040        2.62210        7.07480
H          4.21440        2.48260        5.55330
H          3.87760        2.19210        3.12540
H          1.29680        3.02960       -1.61750
H          1.68820        4.74960       -3.35350
H          0.17510        6.71090       -3.50690
H         -1.71650        6.94140       -1.91850
H         -2.09820        5.22670       -0.18670
H         -0.17090        4.96180        2.38190
H         -1.44790        6.08360        4.17020
H         -3.72200        5.28910        4.76080
H         -4.71800        3.37240        3.54410
H         -3.44450        2.24030        1.76640
H         -1.80010        2.61210       -2.78810
H         -1.83860        4.14060       -4.71980
H         -0.74800        3.47880       -6.84740
H          0.36160        1.26800       -7.03440
H          0.39530       -0.26840       -5.10010
H         -3.21570       -0.29450       -3.83290
H         -4.55370       -2.10400       -4.83520
H         -3.77980       -4.45520       -4.68770
H         -1.65180       -4.98560       -3.53100
H         -0.31880       -3.19240       -2.52780
H          4.59190       -1.00270       -1.87480
H          6.40770        0.23940       -2.98350
H          5.89970        2.27490       -4.30530
H          3.55720        3.06010       -4.51440
H          1.74720        1.83320       -3.41090
H          2.56950       -3.18890       -0.23940
H          3.21720       -5.44090       -0.99950
H          3.15550       -6.00050       -3.41540
H          2.46210       -4.28370       -5.06650
H          1.81810       -2.02310       -4.30630
H         -4.36890        0.76520       -0.09560
H         -3.92970        0.65630       -1.83760
H         -6.12040        3.81270       -1.68570
H         -5.81370        2.19810       -2.43340
H         -6.27040        2.32130       -0.67960
