84
mol80-A-2
C          1.42740        6.49650       -0.17230
S          0.15840        5.20690        0.02150
C          1.34980        3.83120        0.02380
Ge         0.39260        2.14580        0.22070
Ge         1.95880        0.31740        0.17940
O          2.46940       -0.01120       -1.52030
C          3.11880        1.12600       -2.02350
O          3.39240        0.74400        1.18790
C          4.28650       -0.33760        1.16430
Ge         0.86250       -1.63210        1.07420
O          1.19770       -1.64280        2.84530
C          0.70850       -2.84110        3.38550
O          1.37940       -3.21430        0.36720
C          2.09370       -2.98500       -0.81530
Ge        -1.07840        1.79920       -1.63380
O         -0.13150        2.13710       -3.13260
C         -0.95500        1.91600       -4.24580
O         -2.53470        2.86020       -1.54750
C         -2.11280        4.19790       -1.53050
Ge        -1.79000       -0.49680       -1.54700
O         -0.78180       -1.42260       -2.72190
C         -1.19050       -2.76490       -2.70100
O         -3.53780       -0.66140       -1.96870
C         -3.74230       -0.15600       -3.26050
Ge        -1.47970       -1.33530        0.69430
Ge        -2.22300        0.19820        2.39110
O         -1.85320       -0.53830        3.99510
C         -2.98390       -1.24600        4.43130
O         -3.98870        0.57030        2.30030
C         -4.30080        0.97970        0.99690
Ge        -0.96330        2.23250        2.20330
O         -2.15870        3.56510        1.98300
C         -1.62300        4.74020        2.53240
O          0.01150        2.55280        3.69130
C          0.95420        1.52810        3.84790
C         -2.39150       -3.04280        0.91930
S         -4.15630       -2.85420        0.51850
C         -4.56720       -4.59510        0.85250
H          1.98210        6.34610       -1.12190
H          2.13310        6.46930        0.68400
H          0.93310        7.48920       -0.19880
H          2.06390        3.95140        0.86200
H          1.91330        3.82440       -0.92930
H          3.95140        1.45950       -1.36550
H          2.39360        1.94640       -2.19110
H          3.55930        0.87040       -3.00850
H          3.83870       -1.23960        1.63410
H          4.62930       -0.55900        0.12990
H          5.18230       -0.06540        1.75880
H          1.21490       -3.72440        2.93890
H          0.92540       -2.84940        4.47310
H         -0.39230       -2.91250        3.26980
H          2.32820       -3.96470       -1.27920
H          3.05930       -2.48130       -0.60000
H          1.49030       -2.41030       -1.54870
H         -0.39720        2.21030       -5.15790
H         -1.20200        0.83890       -4.34490
H         -1.87540        2.53890       -4.20660
H         -1.61860        4.43870       -0.56820
H         -3.00700        4.84860       -1.61270
H         -1.44860        4.43690       -2.39030
H         -0.65920       -3.30540       -3.51060
H         -2.28100       -2.87330       -2.89060
H         -0.90490       -3.24510       -1.74380
H         -3.11150       -0.68070       -4.01060
H         -4.80080       -0.33120       -3.54110
H         -3.57260        0.94010       -3.28750
H         -3.31260       -2.00060        3.68410
H         -2.72000       -1.79230        5.35970
H         -3.81370       -0.54860        4.67760
H         -4.26250        0.11780        0.30590
H         -5.34110        1.36370        0.98840
H         -3.64250        1.80150        0.64560
H         -1.55480        4.66210        3.63910
H         -2.30720        5.58110        2.29860
H         -0.63210        4.98650        2.09270
H          0.45960        0.55080        4.01100
H          1.64880        1.48530        2.98700
H          1.56180        1.74480        4.74990
H         -1.92980       -3.79830        0.25350
H         -2.28210       -3.37790        1.96910
H         -4.34260       -4.84360        1.91080
H         -5.64950       -4.75290        0.66870
H         -3.98760       -5.26010        0.17880
