84
mol80-B-1
C         -0.25830       -3.99900       -5.67290
S          0.16370       -2.47840       -4.76700
C         -0.57680       -3.03590       -3.20000
Ge        -0.35640       -1.65470       -1.84900
Ge        -1.16810        0.48520       -2.56490
O         -2.96450        0.47000       -2.38360
C         -3.44100        1.78940       -2.42460
O         -0.71190        0.80190       -4.28180
C         -1.63190        0.15520       -5.12070
Ge        -0.10160        2.11520       -1.13270
O          1.54070        2.57220       -1.72890
C          1.45860        2.91440       -3.08780
O         -1.14770        3.57810       -0.98580
C         -0.37170        4.63760       -0.49040
Ge         1.96480       -1.39250       -1.31820
O          2.73040       -0.24610       -2.48150
C          2.56620       -0.75610       -3.77970
O          2.81150       -2.98320       -1.36350
C          4.18850       -2.74890       -1.21090
Ge         1.99300       -0.46930        0.90240
O          1.63100       -1.73280        2.13750
C          2.68600       -2.65620        2.16270
O          3.56760        0.31630        1.30740
C          3.76620        1.40400        0.44460
Ge         0.16150        1.07100        1.01070
Ge        -1.82030       -0.20910        1.41200
O         -1.94300       -0.61210        3.16610
C         -2.60760        0.43750        3.82090
O         -3.21890        0.79690        0.86740
C         -4.33390       -0.03050        0.67090
Ge        -1.53610       -2.24440        0.15880
O         -0.57060       -3.40070        1.15240
C         -0.17960       -4.47380        0.33570
O         -3.13520       -2.96940       -0.25180
C         -3.64830       -3.58710        0.90080
C          0.46260        2.36580        2.42980
S          0.89180        1.48910        3.96690
C          1.07280        3.00810        4.95190
H         -1.35830       -4.14650       -5.67940
H          0.09820       -3.90740       -6.71920
H          0.23580       -4.87340       -5.20040
H         -1.66040       -3.22470       -3.34340
H         -0.08580       -3.96680       -2.85000
H         -4.53850        1.75940       -2.58070
H         -3.00440        2.37750       -3.26280
H         -3.26300        2.29070       -1.45240
H         -2.64780        0.59210       -5.01640
H         -1.65280       -0.93770       -4.93580
H         -1.31330        0.30530       -6.17230
H          2.38520        3.45540       -3.36800
H          0.60260        3.58970       -3.31190
H          1.41360        1.99980       -3.71020
H          0.40930        4.93900       -1.22050
H         -1.03340        5.51350       -0.33310
H          0.08470        4.38830        0.48960
H          3.11260       -0.09890       -4.48640
H          1.49810       -0.74680       -4.07850
H          2.99000       -1.77910       -3.88050
H          4.41230       -2.20670       -0.26620
H          4.60050       -2.19430       -2.08090
H          4.70840       -3.72730       -1.16290
H          3.66820       -2.16150        2.32900
H          2.69460       -3.26540        1.23640
H          2.52060       -3.35260        3.00990
H          3.85120        1.07040       -0.60940
H          2.96670        2.16490        0.55920
H          4.72480        1.89300        0.71250
H         -3.68100        0.46310        3.53830
H         -2.55520        0.25870        4.91420
H         -2.12990        1.42120        3.62300
H         -4.55800       -0.64820        1.56680
H         -4.19730       -0.66210       -0.22950
H         -5.21790        0.61320        0.48640
H          0.28990       -5.24840        0.97540
H         -1.04540       -4.94570       -0.17900
H          0.58200       -4.14920       -0.40130
H         -3.05650       -4.48910        1.16450
H         -4.68530       -3.91870        0.68960
H         -3.69210       -2.88750        1.76400
H          1.29850        3.03390        2.13930
H         -0.46080        2.96460        2.57070
H          0.11070        3.56090        4.97970
H          1.86470        3.65300        4.51710
H          1.36000        2.73540        5.98790
