48
mol81-E-2
C          5.37560        1.37290        1.37960
S          4.76000        0.16340        2.59210
C          3.13960        0.96320        2.84520
Ge         2.04750       -0.01570        4.13560
Ge         3.41050       -1.69610        5.14830
C          5.10510       -0.96740        5.57140
N          6.14000       -0.52030        5.83080
C          3.60360       -3.14060        3.94110
N          3.71890       -4.02350        3.20250
Ge         2.34310       -2.45960        7.14660
C          2.65730       -4.31370        7.36030
N          2.84850       -5.44740        7.48950
C          3.01530       -1.50740        8.63720
N          3.42480       -0.92350        9.54820
Ge         0.14090       -1.11300        3.18290
C          0.63970       -2.01550        1.59570
N          0.94620       -2.56770        0.62640
C         -1.21580        0.15440        2.81660
N         -2.04530        0.92970        2.59470
Ge        -0.68860       -2.70810        4.75780
C          0.03520       -4.41420        4.37470
N          0.48000       -5.45660        4.14200
C         -2.57850       -2.76570        4.68100
N         -3.73390       -2.79930        4.63530
Ge         0.00200       -2.03990        6.94200
Ge        -0.35900        0.30870        7.15530
C         -0.22750        0.80920        8.97550
N         -0.14550        1.11400       10.08860
C         -2.07410        0.73540        6.47860
N         -3.12200        0.99460        6.06270
Ge         1.31390        1.44390        5.88180
C          0.59320        3.04560        5.17800
N          0.15140        4.02520        4.74910
C          2.78850        1.84420        6.99830
N          3.69070        2.08690        7.68060
C         -1.00590       -2.98560        8.30730
S         -0.85000       -4.77990        8.04430
C         -1.89120       -5.22460        9.46890
H          4.71490        1.39090        0.49190
H          5.42270        2.38380        1.83490
H          6.39480        1.07580        1.05870
H          2.58690        1.06910        1.88880
H          3.31800        1.97980        3.25100
H         -0.60430       -2.70820        9.30400
H         -2.07130       -2.68310        8.23550
H         -2.91180       -4.80740        9.34060
H         -1.96080       -6.32970        9.53540
H         -1.44140       -4.83600       10.40630
