48
mol81-B-2
C         -5.29310       -2.51540        0.56410
S         -4.62640       -2.32530       -1.11940
C         -4.23760       -0.54690       -0.98180
Ge        -3.46400        0.10530       -2.64550
Ge        -3.18030        2.47670       -2.62620
C         -1.70030        2.91510       -1.53120
N         -0.79460        3.18020       -0.86220
C         -4.75420        3.30370       -1.97730
N         -5.71740        3.80750       -1.58130
Ge        -2.77990        3.21230       -4.86520
C         -4.40050        3.81780       -5.63230
N         -5.39220        4.18500       -6.10130
C         -1.49660        4.60310       -4.86150
N         -0.71050        5.45200       -4.85880
Ge        -1.34900       -0.92280       -3.08590
C         -1.63790       -2.71630       -3.61580
N         -1.81660       -3.81200       -3.94150
C         -0.24350       -0.86730       -1.55070
N          0.43300       -0.83170       -0.61280
Ge        -0.27580        0.26920       -4.85720
C          0.89150        1.56870       -4.12920
N          1.60260        2.36480       -3.68300
C          0.68880       -0.94360       -5.94360
N          1.27680       -1.68580       -6.60820
Ge        -1.95920        1.37100       -6.14130
Ge        -3.75600       -0.15780       -6.50460
C         -4.91850        0.53300       -7.82830
N         -5.62870        0.95720       -8.63690
C         -3.04940       -1.82450       -7.05650
N         -2.61500       -2.84280       -7.39220
Ge        -4.93790       -0.43030       -4.44550
C         -6.41750        0.74870       -4.40280
N         -7.32010        1.47200       -4.37630
C         -5.52190       -2.22240       -4.27620
N         -5.87690       -3.31860       -4.17220
C         -1.24610        2.01290       -7.83050
S         -0.75870        0.59500       -8.86270
C         -0.18590        1.62000      -10.25300
H         -6.19070       -1.87570        0.69290
H         -5.58230       -3.57460        0.72020
H         -4.52570       -2.24170        1.31380
H         -5.18280        0.00520       -0.80310
H         -3.54480       -0.32930       -0.14270
H         -0.36620        2.65720       -7.62480
H         -2.03120        2.60460       -8.34530
H          0.64250        2.28110       -9.92360
H         -1.02360        2.23390      -10.64490
H          0.18330        0.95780      -11.06260
