48
mol81-D-1
C          0.55500       -8.19220        5.65700
S          0.11480       -7.71700        3.95640
C          1.24640       -6.29210        3.90820
Ge         1.11570       -5.41760        2.17840
Ge         2.72760       -3.66570        1.97250
C          4.43930       -4.43160        1.71760
N          5.48450       -4.90160        1.55980
C          2.71990       -2.58530        3.52620
N          2.71340       -1.92440        4.47580
Ge         2.15450       -2.33340        0.07210
C          3.72760       -1.75460       -0.80600
N          4.68950       -1.40260       -1.34380
C          1.12530       -0.84510        0.62650
N          0.49360        0.06280        0.96540
Ge        -1.06330       -4.49890        1.85510
C         -2.36900       -5.77210        2.36000
N         -3.16600       -6.55210        2.66790
C         -1.23380       -2.93380        2.90550
N         -1.33500       -1.97640        3.54680
Ge        -1.32380       -3.93890       -0.45460
C         -2.22940       -5.33490       -1.35560
N         -2.78070       -6.18980       -1.90650
C         -2.31190       -2.32890       -0.57090
N         -2.91480       -1.34390       -0.64030
Ge         0.85020       -3.66820       -1.41550
Ge         1.87860       -5.81520       -1.58990
C          3.73740       -5.58780       -1.86350
N          4.87370       -5.44670       -2.02870
C          1.11480       -6.76700       -3.03630
N          0.64590       -7.34820       -3.91980
Ge         1.50800       -7.00830        0.44580
C         -0.01650       -8.11510        0.26570
N         -0.95020       -8.78920        0.15540
C          3.03160       -8.04810        0.86820
N          3.96410       -8.68210        1.12690
C          0.79690       -2.85980       -3.18380
S         -0.04480       -1.24290       -3.10310
C          0.11960       -0.85910       -4.87650
H          1.63630       -8.43540        5.71740
H         -0.03130       -9.08850        5.94530
H          0.31580       -7.36550        6.35800
H          2.29220       -6.63320        4.05540
H          0.97630       -5.56150        4.69880
H          1.84070       -2.69860       -3.52210
H          0.30770       -3.56070       -3.89180
H          1.19010       -0.71950       -5.13390
H         -0.30770       -1.67820       -5.49120
H         -0.42900        0.07940       -5.09650
