156
mol83-B-1
C          1.41790        5.54020        3.26900
S          1.67260        4.17270        2.09640
C          0.10860        3.33130        2.50820
Ge        -0.19170        1.67160        1.48650
Ge        -0.73400       -0.21600        2.98800
C         -2.39690        0.01200        4.00040
C         -2.89340       -1.05630        4.77530
F         -2.25870       -2.24930        4.79800
C         -4.04430       -0.90000        5.55350
F         -4.52730       -1.94800        6.26610
C         -4.68080        0.33860        5.62010
F         -5.78530        0.49480        6.39160
C         -4.15650        1.42570        4.92190
F         -4.73340        2.64680        5.04500
C         -3.02150        1.26630        4.11900
F         -2.51220        2.35390        3.50910
C          0.59540       -0.39590        4.42410
C          1.83410       -0.98550        4.14940
F          2.14220       -1.33120        2.89010
C          2.77020       -1.21240        5.16180
F          3.95400       -1.80650        4.86950
C          2.49200       -0.81860        6.46930
F          3.40390       -1.02780        7.45110
C          1.27880       -0.19560        6.76140
F          1.01620        0.20710        8.02990
C          0.33270        0.01640        5.75170
F         -0.81340        0.65380        6.08660
Ge        -0.84550       -2.25950        1.60530
C         -2.44500       -3.32100        2.02580
C         -2.39830       -4.72630        2.18310
F         -1.26720       -5.43240        1.95090
C         -3.54540       -5.43760        2.55440
F         -3.48820       -6.78510        2.69920
C         -4.74820       -4.76710        2.77560
F         -5.85600       -5.45870        3.14120
C         -4.81140       -3.38550        2.60550
F         -5.98200       -2.73010        2.80610
C         -3.67170       -2.67610        2.21770
F         -3.76720       -1.35320        2.01540
C          0.59900       -3.49110        2.09370
C          0.78620       -3.84510        3.44560
F          0.00720       -3.31530        4.41470
C          1.77040       -4.76750        3.81310
F          1.95950       -5.07090        5.12150
C          2.53950       -5.39680        2.83520
F          3.48000       -6.30680        3.19100
C          2.31260       -5.11620        1.48820
F          3.01030       -5.78230        0.53490
C          1.34820       -4.17220        1.11790
F          1.11870       -3.97430       -0.19450
Ge        -2.08610        2.16690       -0.02760
C         -3.56570        2.96830        0.99990
C         -3.59750        4.36000        1.25450
F         -2.56450        5.16540        0.91820
C         -4.69600        4.94480        1.89430
F         -4.71560        6.28240        2.11820
C         -5.76860        4.15720        2.30830
F         -6.83200        4.72660        2.92830
C         -5.72510        2.77770        2.12100
F         -6.73710        2.00020        2.58070
C         -4.62120        2.18890        1.49750
F         -4.54930        0.85220        1.46930
C         -1.77300        3.66430       -1.26730
C         -2.72940        3.96330       -2.26010
F         -3.81560        3.18280       -2.43120
C         -2.56370        5.06090       -3.11020
F         -3.47380        5.30560       -4.08560
C         -1.47470        5.91460       -2.94640
F         -1.32460        6.98980       -3.75930
C         -0.56070        5.68050       -1.92110
F          0.45620        6.55370       -1.71330
C         -0.70890        4.56790       -1.08520
F          0.14040        4.43630       -0.05020
Ge        -2.61890        0.07180       -1.26070
C         -4.44420       -0.55740       -0.88480
C         -5.54070        0.31690       -1.03220
F         -5.35280        1.61750       -1.33500
C         -6.85000       -0.13600       -0.84000
F         -7.88860        0.73000       -0.94570
C         -7.09130       -1.47880       -0.55330
F         -8.36180       -1.91980       -0.37860
C         -6.02420       -2.37220       -0.47680
F         -6.26030       -3.68920       -0.25410
C         -4.71310       -1.91710       -0.65080
F         -3.71750       -2.82000       -0.64820
C         -2.78420        0.25820       -3.21320
C         -2.09190        1.25890       -3.90790
F         -1.13780        1.96830       -3.29190
C         -2.30500        1.47330       -5.27260
F         -1.63200        2.45960       -5.91630
C         -3.17550        0.64790       -5.98120
F         -3.36990        0.84420       -7.30900
C         -3.80830       -0.41020       -5.33010
F         -4.61330       -1.24810       -6.02980
C         -3.60840       -0.61540       -3.96030
F         -4.19690       -1.69250       -3.39160
Ge        -0.82440       -1.55790       -0.76510
Ge         1.38110       -0.62350       -1.38910
C          2.72050       -2.06870       -1.45380
C          2.88550       -2.84880       -2.62290
F          2.05560       -2.72060       -3.68290
C          3.90290       -3.80570       -2.70610
F          4.05480       -4.53520       -3.83950
C          4.75830       -4.01710       -1.62630
F          5.74350       -4.94530       -1.70960
C          4.57010       -3.30150       -0.44620
F          5.35890       -3.55030        0.62900
C          3.54370       -2.35700       -0.35450
F          3.30230       -1.79930        0.83860
C          1.52110       -0.03810       -3.26390
C          0.57140       -0.41630       -4.23200
F         -0.47610       -1.19500       -3.90560
C          0.74060       -0.07020       -5.57730
F         -0.17240       -0.46610       -6.49900
C          1.86240        0.65100       -5.98060
F          2.02030        0.99100       -7.28410
C          2.83930        0.98950       -5.04660
F          3.94900        1.66170       -5.44220
C          2.68620        0.62230       -3.70610
F          3.67180        0.93940       -2.84190
Ge         1.86520        1.24810        0.17830
C          3.48000        0.90980        1.24940
C          4.68990        0.55700        0.61700
F          4.73990        0.34930       -0.71470
C          5.86330        0.38550        1.35860
F          7.00770        0.00560        0.73740
C          5.86290        0.61730        2.73320
F          7.00370        0.46210        3.44990
C          4.69300        1.03810        3.36310
F          4.70360        1.31890        4.69020
C          3.51440        1.19250        2.62580
F          2.42740        1.67510        3.25180
C          2.43730        2.93170       -0.66560
C          3.27020        3.84450        0.02300
F          3.58600        3.66960        1.32660
C          3.76290        4.98550       -0.62030
F          4.57240        5.84360        0.04930
C          3.41780        5.24890       -1.94510
F          3.89570        6.35570       -2.56620
C          2.54140        4.39610       -2.61300
F          2.14620        4.68600       -3.87780
C          2.03540        3.26510       -1.96590
F          1.08100        2.55300       -2.57810
C         -1.09860       -3.09750       -1.96630
S         -1.55100       -4.63450       -1.09650
C         -1.66540       -5.63400       -2.61240
H          1.34510        5.14630        4.30420
H          0.49210        6.09580        3.01160
H          2.28140        6.23360        3.20840
H          0.12280        3.07910        3.58600
H         -0.73310        4.02420        2.31040
H         -1.90200       -2.84430       -2.68630
H         -0.15870       -3.27680       -2.52310
H         -1.94470       -6.67230       -2.34020
H         -0.68560       -5.65010       -3.13350
H         -2.44320       -5.21750       -3.28600
