156
mol83-B-2
C         -0.27780        5.80060        3.36810
S         -1.06180        4.59280        2.25610
C          0.21470        3.31460        2.50200
Ge        -0.11380        1.65930        1.48190
Ge        -0.67290       -0.22100        2.98640
C         -2.32680        0.02920        4.00830
C         -2.83310       -1.03240        4.78590
F         -2.21450       -2.23390        4.80490
C         -3.97740       -0.86070        5.57070
F         -4.47040       -1.90230        6.28600
C         -4.59670        0.38630        5.64110
F         -5.69460        0.55730        6.41890
C         -4.06190        1.46630        4.93990
F         -4.62150        2.69510        5.06650
C         -2.93370        1.29180        4.13050
F         -2.41330        2.37250        3.51780
C          0.66210       -0.41910        4.41490
C          1.89120       -1.02520        4.13300
F          2.18750       -1.37490        2.87190
C          2.82990       -1.26480        5.14010
F          4.00400       -1.87480        4.84100
C          2.56460       -0.86750        6.44910
F          3.47910       -1.08920        7.42570
C          1.36160       -0.22830        6.74830
F          1.11170        0.17770        8.01820
C          0.41260       -0.00340        5.74400
F         -0.72290        0.64940        6.08550
Ge        -0.81980       -2.26260        1.60420
C         -2.43100       -3.30250        2.03370
C         -2.40240       -4.70840        2.19070
F         -1.28230       -5.42960        1.95200
C         -3.55680       -5.40420        2.56850
F         -3.51700       -6.75240        2.71290
C         -4.74920       -4.71760        2.79660
F         -5.86410       -5.39420        3.16850
C         -4.79480       -3.33520        2.62690
F         -5.95520       -2.66410        2.83430
C         -3.64780       -2.64110        2.23270
F         -3.72660       -1.31700        2.03100
C          0.61070       -3.51360        2.08420
C          0.80080       -3.87030        3.43500
F          0.03470       -3.33020        4.40870
C          1.77460       -4.80600        3.79680
F          1.96710       -5.11210        5.10410
C          2.52960       -5.44540        2.81450
F          3.45970       -6.36810        3.16490
C          2.29880       -5.16160        1.46890
F          2.98200       -5.83690        0.51160
C          1.34510       -4.20470        1.10420
F          1.11080       -4.00340       -0.20690
Ge        -2.01000        2.18040       -0.02120
C         -3.47270        3.00150        1.01480
C         -3.48440        4.39340        1.26960
F         -2.44250        5.18480        0.92750
C         -4.57120        4.99280        1.91570
F         -4.57140        6.33060        2.13980
C         -5.65190        4.21980        2.33580
F         -6.70400        4.80340        2.96190
C         -5.62800        2.83980        2.14810
F         -6.64780        2.07590        2.61350
C         -4.53580        2.23630        1.51830
F         -4.48210        0.89870        1.48960
C         -1.68370        3.67360       -1.26260
C         -2.64170        3.98560       -2.24990
F         -3.73930        3.21980       -2.41480
C         -2.46610        5.08100       -3.10090
F         -3.37840        5.33810       -4.07100
C         -1.36480        5.91980       -2.94330
F         -1.20490        6.99310       -3.75690
C         -0.44820        5.67330       -1.92320
F          0.58150        6.53270       -1.72110
C         -0.60660        4.56270       -1.08660
F          0.24680        4.41950       -0.05640
Ge        -2.57800        0.09280       -1.25150
C         -4.40950       -0.51180       -0.86510
C         -5.49480        0.37720       -1.00630
F         -5.29120        1.67520       -1.31000
C         -6.80900       -0.05810       -0.80660
F         -7.83640        0.82190       -0.90630
C         -7.06670       -1.39750       -0.51860
F         -8.34210       -1.82140       -0.33670
C         -6.01140       -2.30520       -0.44820
F         -6.26400       -3.61900       -0.22430
C         -4.69530       -1.86780       -0.62970
F         -3.71190       -2.78400       -0.63290
C         -2.75190        0.28160       -3.20290
C         -2.05010        1.27310       -3.90160
F         -1.08310        1.96940       -3.29090
C         -2.26810        1.49050       -5.26500
F         -1.58560        2.46770       -5.91250
C         -3.15370        0.67700       -5.96870
F         -3.35300        0.87620       -7.29530
C         -3.79690       -0.37250       -5.31410
F         -4.61720       -1.19940       -6.00920
C         -3.59210       -0.58060       -3.94540
F         -4.19180       -1.64970       -3.37340
Ge        -0.80280       -1.56100       -0.76620
Ge         1.41150       -0.65630       -1.40270
C          2.73090       -2.11940       -1.47520
C          2.87860       -2.90150       -2.64520
F          2.04460       -2.76200       -3.70050
C          3.88260       -3.87210       -2.73430
F          4.01820       -4.60340       -3.86870
C          4.74120       -4.09510       -1.65950
F          5.71340       -5.03650       -1.74850
C          4.56950       -3.37720       -0.47830
F          5.36100       -3.63680        0.59230
C          3.55640       -2.41900       -0.38070
F          3.32940       -1.85830        0.81380
C          1.54860       -0.07260       -3.27830
C          0.58840       -0.43780       -4.24090
F         -0.46760       -1.20240       -3.90870
C          0.75460       -0.09380       -5.58720
F         -0.16890       -0.47730       -6.50360
C          1.88370        0.61220       -5.99690
F          2.03870        0.95020       -7.30120
C          2.87030        0.93740       -5.06840
F          3.98680        1.59460       -5.47030
C          2.72000        0.57210       -3.72710
F          3.71470        0.87580       -2.86850
Ge         1.92970        1.20840        0.16200
C          3.54590        0.84820        1.22380
C          4.74730        0.47910        0.58450
F          4.78690        0.27100       -0.74750
C          5.92250        0.29170        1.31930
F          7.05810       -0.10340        0.69160
C          5.93310        0.52330        2.69400
F          7.07570        0.35270        3.40420
C          4.77260        0.95980        3.33060
F          4.79450        1.24020        4.65760
C          3.59200        1.13020        2.60000
F          2.51520        1.62730        3.23230
C          2.51970        2.88420       -0.68500
C          3.36860        3.78560       -0.00110
F          3.68950        3.60630        1.30060
C          3.87300        4.91990       -0.64720
F          4.69780        5.76700        0.01790
C          3.52400        5.18810       -1.96990
F          4.01320        6.28850       -2.59370
C          2.63230        4.34730       -2.63290
F          2.23380        4.64270       -3.89540
C          2.11480        3.22320       -1.98300
F          1.14740        2.52410       -2.58980
C         -1.10460       -3.09660       -1.96600
S         -1.57270       -4.62750       -1.09370
C         -1.70920       -5.62510       -2.60900
H          0.73560        6.05930        2.99640
H         -0.20740        5.38430        4.39460
H         -0.89620        6.72090        3.39550
H          1.18990        3.73160        2.18470
H          0.26370        3.06090        3.57950
H         -1.90860       -2.83250       -2.68140
H         -0.17040       -3.28850       -2.52810
H         -2.00090       -6.65970       -2.33520
H         -0.73270       -5.65440       -3.13560
H         -2.48510       -5.19800       -3.27810
