156
mol83-E-0
C         -5.27980        1.77220        3.48520
S         -4.46690        1.36530        1.90910
C         -2.81870        1.10980        2.65130
Ge        -1.41750        0.61340        1.35110
Ge         0.49050        2.15640        1.70830
C         -0.02750        4.05660        1.55280
C          0.46840        4.91100        0.54840
F          1.35690        4.48310       -0.35870
C          0.10190        6.26000        0.50460
F          0.57670        7.05790       -0.48450
C         -0.72400        6.79600        1.48940
F         -1.06940        8.10700        1.44860
C         -1.17280        5.98700        2.53050
F         -1.94670        6.51600        3.51090
C         -0.81900        4.63510        2.57370
F         -1.22690        3.90900        3.64020
C          1.10600        2.29700        3.56330
C          2.11280        3.22380        3.89090
F          2.55380        4.11240        2.97190
C          2.60410        3.30940        5.19760
F          3.58510        4.19740        5.49560
C          2.06460        2.50490        6.20220
F          2.53670        2.59290        7.47060
C          1.00510        1.64570        5.90840
F          0.43640        0.91140        6.89660
C          0.51460        1.55840        4.60150
F         -0.55900        0.78620        4.36550
Ge         2.31000        1.27610        0.27390
C          3.29570        2.71430       -0.62370
C          4.11820        3.57880        0.12880
F          4.33550        3.35640        1.44500
C          4.79460        4.63610       -0.48870
F          5.57450        5.46450        0.24970
C          4.68780        4.82640       -1.86660
F          5.34570        5.85020       -2.46510
C          3.93230        3.93800       -2.63200
F          3.86300        4.09320       -3.97780
C          3.25750        2.87970       -2.01570
F          2.59470        2.00660       -2.78640
C          3.79130        0.52050        1.30890
C          5.09920        0.47580        0.77240
F          5.35050        0.86200       -0.50220
C          6.16660        0.00280        1.54330
F          7.41640       -0.03620        1.01780
C          5.94810       -0.43570        2.84950
F          6.98380       -0.89480        3.59480
C          4.65880       -0.41740        3.38060
F          4.44290       -0.85560        4.64520
C          3.58950        0.04980        2.61060
F          2.35250        0.01060        3.12700
Ge        -2.25140        0.97780       -0.94510
C         -2.73690        2.84590       -1.34410
C         -2.90890        3.79230       -0.31890
F         -2.74800        3.44820        0.96910
C         -3.29790        5.10450       -0.60870
F         -3.49430        5.99190        0.39710
C         -3.51210        5.49720       -1.92810
F         -3.88080        6.77220       -2.20730
C         -3.36910        4.56940       -2.95730
F         -3.59500        4.94440       -4.24120
C         -3.00610        3.25020       -2.66900
F         -2.90600        2.38350       -3.69660
C         -3.87000       -0.05880       -1.25920
C         -5.14370        0.53930       -1.34490
F         -5.31170        1.87030       -1.15830
C         -6.27310       -0.24560       -1.60690
F         -7.49710        0.33400       -1.68130
C         -6.14440       -1.62460       -1.79160
F         -7.24060       -2.38140       -2.04610
C         -4.88620       -2.22280       -1.70860
F         -4.75700       -3.56180       -1.88180
C         -3.75960       -1.44140       -1.44020
F         -2.55110       -2.02770       -1.34540
Ge        -0.54630        0.19260       -2.51860
C         -1.26530       -1.22310       -3.68530
C         -2.53000       -1.08220       -4.29500
F         -3.29690        0.00300       -4.06920
C         -3.03070       -2.07220       -5.14610
F         -4.26190       -1.93160       -5.69780
C         -2.26140       -3.19480       -5.44330
F         -2.73980       -4.14450       -6.28520
C         -0.98750       -3.32470       -4.89470
F         -0.21310       -4.38360       -5.23720
C         -0.49530       -2.35130       -4.01860
F          0.75290       -2.49650       -3.54360
C         -0.10490        1.67400       -3.70410
C          0.01560        1.51090       -5.09920
F         -0.11890        0.29530       -5.68120
C          0.30240        2.61250       -5.91430
F          0.42380        2.44830       -7.25510
C          0.46680        3.88070       -5.35160
F          0.74510        4.94520       -6.14440
C          0.35050        4.04920       -3.97110
F          0.51760        5.27690       -3.41930
C          0.06880        2.95000       -3.15610
F         -0.01790        3.11750       -1.82260
Ge         1.42490       -0.50040       -1.21120
Ge         0.81400       -2.52700        0.08570
C          2.32560       -3.49280        0.87220
C          2.10330       -4.74440        1.48060
F          0.88490       -5.32880        1.42980
C          3.15580       -5.44170        2.08220
F          2.92250       -6.63640        2.68060
C          4.45060       -4.92390        2.04340
F          5.47270       -5.60500        2.61860
C          4.69930       -3.72930        1.36730
F          5.96910       -3.26460        1.26330
C          3.64660       -3.02800        0.76970
F          3.93560       -1.94330        0.03330
C          0.31000       -4.00980       -1.12510
C          1.32180       -4.63180       -1.89610
F          2.60450       -4.20570       -1.84290
C          1.03270       -5.72510       -2.71830
F          2.01660       -6.29450       -3.45840
C         -0.26110       -6.23590       -2.77570
F         -0.54040       -7.29450       -3.57640
C         -1.26280       -5.66840       -1.99280
F         -2.51490       -6.19000       -2.01900
C         -0.97690       -4.58350       -1.15780
F         -1.95610       -4.15590       -0.35160
Ge        -0.79230       -1.76010        1.83830
C         -2.30820       -2.99570        1.97700
C         -3.61620       -2.60500        1.65620
F         -3.88060       -1.33930        1.30250
C         -4.67810       -3.51050        1.74470
F         -5.93280       -3.11790        1.41020
C         -4.45300       -4.81100        2.19570
F         -5.48390       -5.68760        2.28550
C         -3.17200       -5.19400        2.59410
F         -2.96180       -6.43900        3.08960
C         -2.10940       -4.28860        2.50580
F         -0.90630       -4.65620        3.00190
C         -0.26180       -1.95180        3.73540
C         -1.25710       -1.89290        4.74260
F         -2.56270       -1.71700        4.43370
C         -0.92670       -2.05970        6.09100
F         -1.89330       -1.98180        7.03950
C          0.38820       -2.32570        6.46280
F          0.70510       -2.49330        7.77080
C          1.37170       -2.44540        5.48460
F          2.64390       -2.74850        5.84390
C          1.04920       -2.27410        4.13430
F          2.03010       -2.43610        3.23570
C          2.94260       -0.91970       -2.40360
S          2.65810       -0.47330       -4.15100
C          4.28520       -1.05500       -4.72040
H         -5.19720        0.91770        4.18860
H         -4.81370        2.67470        3.93260
H         -6.35280        1.97880        3.29530
H         -2.51860        2.03460        3.16630
H         -2.89910        0.31850        3.40900
H          3.82900       -0.36770       -2.03890
H          3.16360       -1.99690       -2.35080
H          5.09210       -0.48670       -4.21270
H          4.36460       -0.89150       -5.81450
H          4.39790       -2.13890       -4.50970
