156
mol83-C-1
C         -0.45950        6.30380        0.40380
S         -0.85470        4.56490        0.76500
C          0.36050        3.88890       -0.41220
Ge         0.39850        1.91850       -0.47050
Ge         2.75930        1.25860       -0.13840
C          3.52250        2.35790        1.30120
C          4.10980        3.61330        1.02210
F          4.05400        4.16060       -0.21410
C          4.73690        4.34740        2.03530
F          5.30710        5.54450        1.74980
C          4.77080        3.85630        3.33990
F          5.37920        4.56930        4.32010
C          4.14000        2.65080        3.64140
F          4.11520        2.20040        4.92060
C          3.49790        1.92530        2.63380
F          2.77890        0.84800        2.97900
C          3.98070        1.76220       -1.58830
C          3.60000        2.68580       -2.57530
F          2.37800        3.24650       -2.55020
C          4.50300        3.09330       -3.56300
F          4.11970        3.99410       -4.50180
C          5.80560        2.59550       -3.56900
F          6.67870        2.98650       -4.53040
C          6.21810        1.72340       -2.56210
F          7.49590        1.26880       -2.54260
C          5.32240        1.33220       -1.56170
F          5.77400        0.53180       -0.57220
Ge         2.85600       -1.19420        0.21640
C          4.26140       -2.06280       -0.86550
C          4.49110       -1.64540       -2.18210
F          3.68620       -0.73560       -2.74400
C          5.53880       -2.17210       -2.94210
F          5.74780       -1.72890       -4.20690
C          6.36120       -3.15950       -2.40610
F          7.37170       -3.67940       -3.14640
C          6.13120       -3.62300       -1.11210
F          6.91650       -4.60220       -0.59780
C          5.09280       -3.08470       -0.34290
F          4.89880       -3.60500        0.89050
C          3.47060       -1.64350        2.02500
C          4.67050       -1.08490        2.51350
F          5.35440       -0.17270        1.78910
C          5.18110       -1.46240        3.75900
F          6.31530       -0.88580        4.22890
C          4.54160       -2.44920        4.50740
F          5.04860       -2.82920        5.70650
C          3.40000       -3.07020        4.00290
F          2.81800       -4.07830        4.69920
C          2.86930       -2.67520        2.76990
F          1.80250       -3.34460        2.29210
Ge        -0.95460        1.16500        1.45690
C         -2.71320        2.04470        1.40550
C         -2.91660        3.30240        2.01910
F         -1.88760        4.01170        2.53690
C         -4.19460        3.87010        2.07430
F         -4.37640        5.07080        2.67860
C         -5.28170        3.20970        1.50310
F         -6.51910        3.76190        1.55760
C         -5.08360        2.00290        0.83500
F         -6.12530        1.39140        0.21760
C         -3.80460        1.44360        0.76390
F         -3.61970        0.36610       -0.01120
C         -0.34910        1.82490        3.21110
C          0.56950        2.88550        3.32790
F          1.08080        3.48120        2.23600
C          0.91420        3.40240        4.58180
F          1.78560        4.43790        4.67160
C          0.34150        2.87790        5.73860
F          0.68250        3.37630        6.95300
C         -0.60900        1.86390        5.64090
F         -1.19380        1.37500        6.76280
C         -0.97420        1.36220        4.38790
F         -1.92570        0.40770        4.33680
Ge        -1.02560       -1.32050        1.39050
C         -0.62630       -2.20570        3.10110
C         -1.18370       -3.46650        3.41610
F         -1.89160       -4.17450        2.50630
C         -0.98450       -4.03860        4.67780
F         -1.53740       -5.24220        4.97010
C         -0.21280       -3.37940        5.63380
F         -0.02100       -3.93600        6.85560
C          0.39940       -2.16940        5.31290
F          1.20770       -1.55890        6.21520
C          0.21570       -1.60560        4.04720
F          0.93550       -0.52440        3.71770
C         -2.86250       -1.98540        1.13940
C         -3.15450       -3.04330        0.25750
F         -2.18250       -3.63310       -0.46110
C         -4.44990       -3.56400        0.16410
F         -4.70610       -4.59710       -0.67670
C         -5.47310       -3.04590        0.95540
F         -6.72920       -3.54800        0.85800
C         -5.19350       -2.03480        1.87220
F         -6.18000       -1.55220        2.66820
C         -3.89480       -1.52930        1.98570
F         -3.66060       -0.57780        2.91220
Ge         0.60020       -2.06180       -0.31850
Ge        -0.19210       -1.39550       -2.56510
C          0.99060       -1.88930       -4.05000
C          2.03630       -2.81000       -3.87470
F          2.25410       -3.37490       -2.67390
C          2.82830       -3.21050       -4.95610
F          3.82720       -4.10880       -4.76860
C          2.57610       -2.70860       -6.23230
F          3.34820       -3.09270       -7.27910
C          1.50480       -1.83920       -6.43510
F          1.23270       -1.38050       -7.68220
C          0.69900       -1.45500       -5.35850
F         -0.36260       -0.65710       -5.60330
C         -1.75010       -2.49810       -3.03440
C         -3.05330       -2.07090       -2.74640
F         -3.25380       -0.99740       -1.96930
C         -4.16510       -2.79840       -3.18050
F         -5.41610       -2.35340       -2.90280
C         -3.98970       -4.00070       -3.86320
F         -5.06810       -4.71580       -4.26960
C         -2.70220       -4.48660       -4.08850
F         -2.53070       -5.68080       -4.70850
C         -1.58800       -3.75050       -3.67010
F         -0.36320       -4.29290       -3.86090
Ge        -0.56710        1.05620       -2.58040
C          0.21430        1.93370       -4.16760
C         -0.46510        2.95610       -4.87590
F         -1.63800        3.47090       -4.44100
C          0.08310        3.50090       -6.04310
F         -0.57900        4.48050       -6.70800
C          1.30800        3.04330       -6.52520
F          1.83330        3.56950       -7.65950
C          1.99860        2.05540       -5.82810
F          3.19900        1.61790       -6.28360
C          1.46130        1.52230       -4.65360
F          2.17360        0.61220       -3.97840
C         -2.46270        1.50030       -2.82520
C         -3.07800        2.52700       -2.08500
F         -2.40190        3.19490       -1.13030
C         -4.39270        2.91900       -2.36110
F         -4.96400        3.92220       -1.64940
C         -5.11000        2.29960       -3.38350
F         -6.38670        2.67640       -3.64310
C         -4.49890        1.31780       -4.16170
F         -5.18110        0.74300       -5.18350
C         -3.17600        0.94360       -3.90780
F         -2.59750        0.03650       -4.72440
C          0.55690       -4.03260       -0.27770
S          2.20640       -4.80100       -0.18800
C          1.57480       -6.50720       -0.17890
H         -1.10250        6.95740        1.02790
H         -0.65380        6.52470       -0.66640
H          0.60410        6.51090        0.64400
H          0.11610        4.26510       -1.42540
H          1.36810        4.24910       -0.12350
H          0.05080       -4.39140       -1.19580
H         -0.02810       -4.35050        0.60830
H          2.43190       -7.20930       -0.12730
H          0.92430       -6.66830        0.70580
H          1.00220       -6.70680       -1.10860
