84
mol8-E-1
C         -2.90810        5.06810        0.69230
S         -2.59610        3.41310        1.38720
C         -1.27310        2.96310        0.19840
C         -0.52430        1.53350        0.26520
C          1.01640        1.69910       -0.30990
C          1.79480        2.77320        0.50820
C          1.91230        4.08720        0.22500
C          0.98820        2.30660       -1.74720
C          2.05730        2.58370       -2.51230
C          1.77960        0.23500       -0.25620
C          2.11560       -0.21900       -1.71600
C          3.32310       -0.46340       -2.26980
C          3.16720        0.26520        0.46560
C          4.17810        1.12860        0.26330
C         -0.46480        1.10860        1.86940
C         -1.92550        0.94570        2.43470
C         -2.66840        1.86540        3.08740
C          0.09270        2.26090        2.76220
C          0.23860        2.17930        4.09720
C          0.42150       -0.27960        2.04590
C         -0.35830       -1.21680        3.04000
C         -0.35480       -2.55180        3.20630
C          1.72730       -0.00100        2.85650
C          2.34790       -0.81620        3.73360
C          0.80060       -0.86550        0.53080
C         -0.59930       -1.10440       -0.30720
C         -1.52470       -2.07580        0.48390
C         -1.66460       -3.40600        0.30390
C         -0.29310       -1.88140       -1.62460
C         -1.18570       -2.22980       -2.56580
C         -1.34260        0.34980       -0.57400
C         -2.84500        0.38300       -0.14910
C         -3.79450       -0.52150       -0.44560
C         -1.38390        0.63880       -2.10930
C         -2.45630        0.88150       -2.89360
C          1.54910       -2.27900        0.72010
S          2.90000       -2.83670       -0.39190
C          3.18160       -4.42730        0.45130
H         -3.24390        4.98320       -0.36200
H         -1.98780        5.68620        0.74610
H         -3.70610        5.56260        1.28310
H         -1.70670        3.13860       -0.79360
H         -0.55890        3.78570        0.30340
H          2.30490        2.49760        1.40910
H          2.48730        4.72960        0.88480
H          1.43170        4.55230       -0.62830
H          0.07300        2.67800       -2.16160
H          1.92010        3.06720       -3.47440
H          3.06350        2.34610       -2.21610
H          1.34580       -0.24830       -2.45100
H          4.25330       -0.47490       -1.71960
H          3.38590       -0.70760       -3.32610
H          3.43930       -0.55500        1.11500
H          5.11480        0.99090        0.79400
H          4.11270        1.96590       -0.40900
H         -2.43920        0.00940        2.34520
H         -2.32810        2.87720        3.27660
H         -3.66390        1.60490        3.43360
H          0.22800        3.25600        2.36900
H          0.02940        1.26600        4.63980
H          0.55930        3.04920        4.66150
H         -0.83770       -0.72260        3.87870
H          0.17440       -3.26340        2.60980
H         -0.91170       -2.97700        4.03600
H          2.22920        0.94070        2.75570
H          3.25270       -0.47820        4.22940
H          2.00310       -1.81200        3.97410
H         -2.16010       -1.69630        1.25480
H         -1.09070       -3.97140       -0.42110
H         -2.36280       -3.96020        0.92350
H          0.67910       -2.31910       -1.77490
H         -0.86810       -2.83180       -3.41130
H         -2.21980       -1.93450       -2.52720
H         -3.24280        1.28170        0.30060
H         -3.59240       -1.43760       -0.97300
H         -4.82210       -0.33620       -0.14910
H         -0.49370        0.54870       -2.68860
H         -2.31800        1.00540       -3.96360
H         -3.46420        1.00430       -2.52080
H          0.83150       -3.10210        0.63910
H          1.99700       -2.34660        1.72020
H          3.99490       -4.97250       -0.06970
H          2.26020       -5.04520        0.42170
H          3.48470       -4.25370        1.50470
