84
mol8-C-2
C         -4.31340        3.49420        0.21570
S         -2.95590        2.87140       -0.82770
C         -2.52090        1.46090        0.26220
C         -1.32320        0.43770       -0.10120
C          0.06110        1.06690        0.58400
C          0.21050        2.58090        0.20110
C          1.21140        3.39660        0.57430
C         -0.06190        1.11180        2.13960
C         -0.45260        2.15120        2.90610
C          1.36910        0.16830        0.12650
C          2.25780       -0.32840        1.31190
C          2.75360        0.40900        2.32070
C          2.32940        1.06030       -0.72560
C          3.63420        1.33610       -0.51610
C         -1.59190       -1.08150        0.50890
C         -1.97870       -0.94950        2.01710
C         -2.12020       -1.94450        2.91010
C         -2.83310       -1.76920       -0.14700
C         -3.99100       -2.15200        0.43220
C         -0.25140       -2.00390        0.22640
C          0.41190       -2.44130        1.57030
C          0.99830       -3.62300        1.85380
C         -0.59880       -3.37370       -0.45450
C         -1.44080       -4.30490        0.02560
C          0.82950       -1.15400       -0.71770
C          0.08330       -0.67230       -2.11790
C         -0.44950       -1.90230       -2.91690
C          0.17920       -2.56730       -3.90860
C          1.13510       -0.06110       -3.09300
C          0.89430        0.50190       -4.28900
C         -1.14470        0.36870       -1.74810
C         -0.87080        1.78680       -2.33880
C         -1.77700        2.65360       -2.83720
C         -2.50150       -0.02080       -2.41000
C         -2.72670       -0.24510       -3.71550
C          2.02780       -2.17770       -1.07780
S          3.74590       -1.59900       -1.35990
C          4.44110       -3.25040       -1.68990
H         -4.75730        4.38900       -0.26630
H         -3.92670        3.78120        1.21560
H         -5.10000        2.71880        0.32420
H         -3.47080        0.92250        0.37120
H         -2.36800        1.91460        1.24960
H         -0.60090        3.11330       -0.26650
H          2.06730        3.05370        1.12870
H          1.17360        4.44990        0.31440
H          0.17880        0.24500        2.72040
H         -0.48950        2.03800        3.98510
H         -0.75470        3.10950        2.49930
H          2.65700       -1.33260        1.28590
H          3.41840       -0.05120        3.04500
H          2.52500        1.45200        2.45470
H          1.92530        1.65140       -1.51910
H          4.14250        2.03890       -1.16930
H          4.23590        0.86740        0.25100
H         -2.31270        0.00720        2.39320
H         -1.90930       -2.97470        2.68140
H         -2.46280       -1.71840        3.91490
H         -2.76470       -2.11640       -1.15560
H         -4.73060       -2.68660       -0.15600
H         -4.25910       -1.92560        1.45540
H          0.43420       -1.76560        2.40050
H          1.42000       -3.78930        2.84030
H          1.09050       -4.42880        1.13490
H         -0.03200       -3.72850       -1.29900
H         -1.54790       -5.25280       -0.49240
H         -2.02770       -4.15760        0.91510
H         -1.41400       -2.31350       -2.69380
H          1.17770       -2.31690       -4.24860
H         -0.31010       -3.41240       -4.38280
H          2.18130       -0.21500       -2.90750
H          1.72680        0.81810       -4.90990
H         -0.09500        0.68670       -4.66490
H          0.12880        2.17260       -2.37380
H         -2.84210        2.45160       -2.85400
H         -1.44730        3.61470       -3.21940
H         -3.40560        0.02980       -1.83340
H         -1.94440       -0.27940       -4.45120
H         -3.73910       -0.43050       -4.06060
H          2.14110       -2.93380       -0.29100
H          1.78810       -2.76950       -1.97030
H          5.52680       -3.15060       -1.89330
H          3.95080       -3.70160       -2.57750
H          4.30130       -3.90830       -0.80710
