156
mol83-B-0
C          0.52200        4.90320        4.59450
S          0.22820        3.14440        4.23350
C          0.16430        3.37290        2.42590
Ge        -0.15080        1.70250        1.42630
Ge        -0.70580       -0.16100        2.95290
C         -2.36530        0.09340        3.96460
C         -2.86910       -0.96080        4.75400
F         -2.24390       -2.15840        4.79140
C         -4.01750       -0.78520        5.53180
F         -4.50780       -1.82000        6.25870
C         -4.64400        0.45920        5.58330
F         -5.74610        0.63420        6.35420
C         -4.11220        1.53290        4.87020
F         -4.67910        2.76010        4.97840
C         -2.97960        1.35400        4.06790
F         -2.46270        2.42950        3.44320
C          0.62430       -0.33300        4.38940
C          1.85790       -0.93590        4.12050
F          2.16130       -1.30040        2.86540
C          2.79360       -1.15710        5.13450
F          3.97220       -1.76440        4.84820
C          2.52060       -0.74420        6.43710
F          3.43230       -0.94800        7.42030
C          1.31290       -0.10780        6.72290
F          1.05550        0.31340        7.98640
C          0.36690        0.09870        5.71190
F         -0.77350        0.74950        6.04010
Ge        -0.83580       -2.22130        1.59700
C         -2.44300       -3.26440        2.03350
C         -2.40730       -4.66800        2.20900
F         -1.28230       -5.38610        1.98440
C         -3.55950       -5.36520        2.59120
F         -3.51290       -6.71110        2.75340
C         -4.75660       -4.68230        2.80530
F         -5.86930       -5.36020        3.18150
C         -4.80900       -3.30250        2.61740
F         -5.97400       -2.63520        2.81120
C         -3.66420       -2.60730        2.21880
F         -3.74950       -1.28640        1.99950
C          0.59960       -3.45800        2.09930
C          0.78600       -3.79590        3.45540
F          0.01280       -3.24740        4.41870
C          1.76340       -4.72140        3.83350
F          1.95210       -5.00930        5.14540
C          2.52600       -5.36940        2.86270
F          3.45970       -6.28230        3.22900
C          2.29930       -5.10450        1.51260
F          2.99010       -5.78850        0.56700
C          1.34190       -4.15770        1.13140
F          1.11200       -3.97500       -0.18310
Ge        -2.04350        2.19330       -0.09140
C         -3.51500        3.01980        0.92770
C         -3.53540        4.41480        1.16420
F         -2.49650        5.20750        0.81610
C         -4.62820        5.01660        1.79800
F         -4.63670        6.35720        2.00450
C         -5.70640        4.24320        2.22370
F         -6.76430        4.82900        2.83780
C         -5.67420        2.86100        2.05430
F         -6.69170        2.09760        2.52550
C         -4.57600        2.25540        1.43690
F         -4.51480        0.91790        1.42600
C         -1.72030        3.67200       -1.35090
C         -2.67580        3.96570       -2.34610
F         -3.76860        3.19170       -2.50550
C         -2.50270        5.05080       -3.21060
F         -3.41230        5.29010       -4.18780
C         -1.40670        5.89780       -3.05950
F         -1.24930        6.96110       -3.88650
C         -0.49300        5.66970       -2.03260
F          0.53110        6.53740       -1.83750
C         -0.64880        4.56930       -1.18210
F          0.20100        4.44430       -0.14660
Ge        -2.59490        0.08670       -1.29650
C         -4.42460       -0.52300       -0.90980
C         -5.51430        0.35810       -1.06700
F         -5.31650        1.65320       -1.38690
C         -6.82690       -0.08180       -0.86700
F         -7.85870        0.79100       -0.98250
C         -7.07840       -1.41880       -0.56260
F         -8.35220       -1.84730       -0.38030
C         -6.01840       -2.31960       -0.47600
F         -6.26470       -3.63170       -0.23590
C         -4.70390       -1.87730       -0.65780
F         -3.71560       -2.78800       -0.64490
C         -2.76170        0.24900       -3.25090
C         -2.06250        1.23520       -3.95960
F         -1.10190        1.94480       -3.35420
C         -2.27590        1.43350       -5.32670
F         -1.59610        2.40590       -5.98410
C         -3.15410        0.60590       -6.02330
F         -3.34900        0.78660       -7.35320
C         -3.79430       -0.43850       -5.35760
F         -4.60710       -1.27900       -6.04520
C         -3.59400       -0.62750       -3.98550
F         -4.19020       -1.69240       -3.40200
Ge        -0.81270       -1.55070       -0.78230
Ge         1.39920       -0.64210       -1.42150
C          2.72700       -2.09880       -1.46930
C          2.88390       -2.89530       -2.62840
F          2.05350       -2.77410       -3.68880
C          3.89350       -3.86130       -2.70070
F          4.03790       -4.60660       -3.82480
C          4.74890       -4.06550       -1.61950
F          5.72650       -5.00260       -1.69210
C          4.56820       -3.33310       -0.44860
F          5.35670       -3.57430        0.62870
C          3.54950       -2.37940       -0.36760
F          3.31440       -1.80440        0.81850
C          1.54100       -0.08230       -3.30400
C          0.58680       -0.46540       -4.26570
F         -0.46630       -1.23140       -3.92780
C          0.75670       -0.13820       -5.61560
F         -0.16080       -0.53870       -6.53080
C          1.88370        0.56880       -6.02990
F          2.04230        0.89050       -7.33790
C          2.86460        0.91160       -5.10170
F          3.97910        1.56960       -5.50770
C          2.71070        0.56300       -3.75640
F          3.70000        0.88340       -2.89780
Ge         1.90070        1.24570        0.12070
C          3.51430        0.90840        1.19380
C          4.72040        0.53770        0.56430
F          4.76670        0.31240       -0.76460
C          5.89350        0.36650        1.30640
F          7.03390       -0.03060        0.68860
C          5.89710        0.61600        2.67790
F          7.03770        0.46110        3.39500
C          4.73160        1.05440        3.30400
F          4.74640        1.35230        4.62730
C          3.55310        1.20860        2.56640
F          2.47100        1.70800        3.18770
C          2.48490        2.91360       -0.74580
C          3.32610        3.82850       -0.07020
F          3.64250        3.66800        1.23510
C          3.82690        4.95710       -0.72910
F          4.64420        5.81730       -0.07180
C          3.48190        5.20600       -2.05660
F          3.96770        6.30080       -2.69270
C          2.59770        4.35160       -2.71220
F          2.20280        4.62830       -3.98000
C          2.08370        3.23320       -2.04970
F          1.12270        2.52100       -2.65120
C         -1.10100       -3.10360       -1.96310
S         -1.56440       -4.62550       -1.07270
C         -1.68910       -5.64360       -2.57540
H         -0.32430        5.51590        4.21970
H          1.46800        5.23720        4.11940
H          0.60440        5.03780        5.69230
H         -0.65670        4.07810        2.19340
H          1.12380        3.81100        2.08670
H         -1.90350       -2.85330       -2.68510
H         -0.16340       -3.29750       -2.51870
H         -1.97620       -6.67600       -2.28920
H         -0.71020       -5.67430       -3.09750
H         -2.46450       -5.22960       -3.25310
