84
mol8-A-2
C         -4.22750        3.55970        1.48170
S         -2.50910        3.25770        0.95670
C         -2.65970        1.43280        0.87880
C         -1.41840        0.49220        0.45120
C         -1.57010       -0.98020        1.18020
C         -2.94400       -1.62840        0.86300
C         -3.31560       -2.83430        1.31780
C         -1.62170       -0.82710        2.73590
C         -2.72290       -0.69380        3.50430
C         -0.31260       -1.93990        0.71740
C         -0.81330       -3.16760       -0.11980
C         -0.32690       -4.42700       -0.10770
C          0.36650       -2.63180        1.94320
C         -0.26630       -3.42670        2.82420
C         -1.31380        0.30870       -1.19760
C         -2.54230       -0.46160       -1.77720
C         -3.49640       -0.02060       -2.62500
C         -1.39980        1.72360       -1.85580
C         -1.24300        2.01100       -3.15960
C          0.07590       -0.51690       -1.56510
C         -0.15300       -1.75560       -2.48910
C         -0.80060       -1.76640       -3.66690
C          1.02390        0.40980       -2.39140
C          1.58210        0.18890       -3.60070
C          0.78460       -1.03780       -0.15420
C          1.26620        0.26230        0.74570
C          1.91080       -0.20760        2.08530
C          3.22200       -0.40280        2.33610
C          2.44190        0.99850        0.03370
C          3.03490        2.13970        0.42280
C         -0.03750        1.23480        1.02450
C          0.15470        2.63290        0.35410
C         -0.21950        3.83550        0.83910
C         -0.20190        1.60440        2.54000
C          0.73310        2.13600        3.34650
C          2.05200       -2.00350       -0.42010
S          3.12270       -1.81260       -1.89660
C          4.24510       -3.18760       -1.48550
H         -4.93430        3.18380        0.71290
H         -4.42540        3.05920        2.45220
H         -4.38040        4.65130        1.60460
H         -3.52690        1.26550        0.23010
H         -3.02700        1.16040        1.87670
H         -3.72040       -1.06850        0.37350
H         -4.31190       -3.21760        1.12360
H         -4.31190       -3.21750        1.12360
H         -0.71370       -0.82330        3.30870
H         -3.72590       -0.65650        3.09340
H         -2.61940       -0.59840        4.58060
H         -1.63950       -3.06800       -0.79080
H         -0.77950       -5.18400       -0.74090
H          0.51660       -4.73210        0.50100
H          1.43890       -2.63970        2.05390
H          0.29840       -3.92680        3.60450
H         -1.33060       -3.60300        2.77750
H         -2.63410       -1.50790       -1.60180
H         -3.59310        1.00770       -2.94620
H         -4.25230       -0.71240       -2.98430
H         -1.75160        2.56320       -1.27440
H         -1.38970        3.02840       -3.50820
H         -0.99740        1.26200       -3.89500
H          0.35860       -2.68260       -2.27470
H         -1.27230       -0.88930       -4.07930
H         -0.83850       -2.67970       -4.25230
H          1.20130        1.40730       -2.05680
H          1.51860       -0.75030       -4.13380
H          2.17040        0.97260       -4.06830
H          1.28880       -0.41510        2.93470
H          3.53690       -0.73150        3.32160
H          3.99300       -0.27350        1.58490
H          2.96310        0.51130       -0.76760
H          3.90010        2.50580       -0.12090
H          2.67950        2.74210        1.23820
H          0.63410        2.71300       -0.59930
H         -0.73970        3.96050        1.78170
H         -0.01750        4.73300        0.26260
H         -1.18000        1.62130        2.99090
H          1.76010        2.26280        3.05830
H          0.46500        2.43240        4.35590
H          1.73670       -3.05120       -0.47720
H          2.74360       -1.99390        0.43210
H          5.01390       -3.27530       -2.28020
H          3.67910       -4.14050       -1.42840
H          4.75170       -2.99160       -0.51770
