84
mol80-A-1
C          2.69610        5.70520       -1.10870
S          2.06450        4.02150       -1.38710
C          1.14100        3.95290        0.17950
Ge         0.24680        2.22850        0.32900
Ge         1.87980        0.46120        0.24080
O          2.40330        0.19810       -1.46640
C          3.01050        1.37180       -1.93740
O          3.29590        0.91300        1.26290
C          4.22950       -0.13360        1.21140
Ge         0.85600       -1.55130        1.08040
O          1.19020       -1.59760        2.85120
C          0.74540       -2.82750        3.35790
O          1.43170       -3.09340        0.33170
C          2.13780       -2.80570       -0.84300
Ge        -1.20900        1.87810       -1.53670
O         -0.27440        2.29140       -3.02420
C         -1.08830        2.07020       -4.14430
O         -2.70380        2.88160       -1.42410
C         -2.33180        4.23310       -1.37010
Ge        -1.83500       -0.44420       -1.51340
O         -0.79240       -1.29970       -2.71130
C         -1.15100       -2.65640       -2.72750
O         -3.57520       -0.66200       -1.94240
C         -3.79750       -0.12960       -3.22030
Ge        -1.49530       -1.33130        0.70480
Ge        -2.29620        0.12700        2.44130
O         -1.90040       -0.63870        4.02540
C         -3.00440       -1.39930        4.44040
O         -4.07440        0.43570        2.35770
C         -4.40070        0.86840        1.06530
Ge        -1.11280        2.21090        2.31090
O         -2.35660        3.50380        2.12480
C         -1.86520        4.68250        2.70680
O         -0.15150        2.52660        3.80880
C          0.82850        1.53370        3.93910
C         -2.34330       -3.07690        0.88190
S         -4.11360       -2.94300        0.48340
C         -4.45990       -4.70640        0.76930
H          3.31690        5.73240       -0.18890
H          1.85130        6.41880       -1.01360
H          3.32290        6.00400       -1.97370
H          0.38760        4.76430        0.20970
H          1.83900        4.07960        1.02970
H          3.82970        1.71790       -1.26930
H          2.25550        2.16900       -2.08400
H          3.46080        1.15950       -2.92830
H          3.81520       -1.06410        1.65590
H          4.58100       -0.31390        0.17200
H          5.11420        0.15540        1.81460
H          1.28450       -3.67890        2.88830
H          0.96170       -2.85730        4.44520
H         -0.35190       -2.93650        3.23840
H          2.40880       -3.76300       -1.33280
H          3.08390       -2.27260       -0.61250
H          1.51400       -2.23410       -1.56150
H         -0.54120        2.40980       -5.04720
H         -1.29510        0.98780       -4.27300
H         -2.03120        2.65740       -4.08990
H         -1.84750        4.46580       -0.40080
H         -3.24950        4.85220       -1.43610
H         -1.67640        4.51980       -2.22200
H         -0.59950       -3.15460       -3.55060
H         -2.23670       -2.79990       -2.92180
H         -0.84850       -3.15150       -1.78320
H         -3.14720       -0.61010       -3.98330
H         -4.84860       -0.33630       -3.50740
H         -3.66850        0.97240       -3.21720
H         -3.30440       -2.14510        3.67230
H         -2.72100       -1.96050        5.35400
H         -3.85960       -0.74020        4.70410
H         -4.32990        0.02770        0.35140
H         -5.45440        1.21370        1.06550
H         -3.77310        1.72330        0.73760
H         -1.79500        4.57690        3.81110
H         -2.58000        5.50350        2.49480
H         -0.88380        4.97730        2.27560
H          0.37040        0.53460        4.07470
H          1.52480        1.54010        3.07840
H          1.42700        1.74820        4.84760
H         -1.85350       -3.79630        0.19670
H         -2.22230       -3.43610        1.92240
H         -4.22690       -4.97510        1.82090
H         -5.53550       -4.89920        0.57950
H         -3.85560       -5.33080        0.07880
