84
mol8-B-1
C         -5.15870        0.26840        2.07120
S         -3.66790       -0.71170        1.70210
C         -2.66460        0.70240        1.10190
C         -1.14380        0.51200        0.58810
C         -1.07420        0.16750       -1.03850
C         -2.07690       -0.99300       -1.33910
C         -2.20990       -1.67550       -2.48990
C         -1.59200        1.35450       -1.91470
C         -2.65220        1.38880       -2.75050
C          0.49310       -0.16610       -1.44660
C          0.98480        0.65170       -2.68010
C          0.42150        0.66210       -3.89970
C          0.64280       -1.64230       -1.92560
C          1.46720       -2.11120       -2.88530
C         -0.27540        1.88000        0.93430
C         -0.98830        3.12520        0.32340
C         -0.56260        4.39730        0.39650
C         -0.29890        2.18100        2.46400
C         -1.15900        2.98190        3.12690
C          1.27580        1.69750        0.39110
C          1.55360        2.74820       -0.73310
C          2.50770        3.70270       -0.78120
C          2.37130        1.99180        1.46600
C          2.46170        3.07270        2.26080
C          1.47590        0.13560       -0.14710
C          1.08930       -0.92380        1.07700
C          1.97970       -0.66370        2.33340
C          3.11610       -1.30140        2.68340
C          1.47830       -2.38870        0.67450
C          1.24090       -3.50830        1.37930
C         -0.50690       -0.76170        1.44980
C         -0.76010       -0.56350        2.98460
C         -0.31830       -1.34830        3.98250
C         -1.28380       -2.08060        1.14000
C         -2.29310       -2.62750        1.84900
C          3.00920       -0.17170       -0.55650
S          4.11300        1.13280       -1.22470
C          5.56860        0.05490       -1.42090
H         -4.92930        1.04320        2.83200
H         -5.94300       -0.40550        2.47230
H         -5.53910        0.74950        1.14630
H         -3.28780        1.16810        0.32850
H         -2.70640        1.41780        1.93390
H         -2.85900       -1.21140       -0.62570
H         -1.56690       -1.52610       -3.34000
H         -2.99850       -2.41510       -2.58680
H         -1.01380        2.24730       -1.98790
H         -3.37300        0.58870       -2.84910
H         -2.83840        2.28170       -3.33980
H          1.93130        1.15680       -2.64870
H          0.89220        1.21680       -4.70530
H         -0.49170        0.13910       -4.12410
H          0.05580       -2.41560       -1.47040
H          1.47100       -3.17140       -3.11900
H          2.15870       -1.47920       -3.43100
H         -1.97930        3.03490       -0.07870
H          0.37720        4.67250        0.84250
H         -1.17840        5.19500       -0.00680
H          0.42030        1.72020        3.11200
H         -1.06190        3.10140        4.20140
H         -1.97440        3.50480        2.64010
H          0.86910        2.84540       -1.54480
H          2.52330        4.40000       -1.61360
H          3.30380        3.80170       -0.05610
H          3.24490        1.35730        1.51510
H          3.31760        3.18450        2.91890
H          1.71910        3.85150        2.28110
H          1.70010        0.09480        3.03810
H          3.63200       -1.01600        3.59500
H          3.56470       -2.08710        2.08650
H          2.14940       -2.56240       -0.15120
H          0.64200       -3.52950        2.27110
H          1.64170       -4.45570        1.03210
H         -1.48950        0.15410        3.32400
H          0.36990       -2.16020        3.83550
H         -0.63870       -1.15210        5.00110
H         -1.02300       -2.66410        0.27870
H         -2.70610       -2.17340        2.74240
H         -2.73970       -3.55900        1.51500
H          3.06660       -0.98000       -1.29580
H          3.56880       -0.56570        0.30220
H          5.87090       -0.36330       -0.43830
H          5.34140       -0.77010       -2.12770
H          6.40840        0.65380       -1.82850
