84
mol8-E-0
C         -2.74930        5.12330       -0.38230
S         -2.23040        3.53650       -1.11170
C         -1.29460        2.95850        0.35680
C         -0.53870        1.53120        0.37200
C          1.00190        1.72560       -0.19430
C          1.77380        2.77260        0.66410
C          1.88510        4.09670        0.42980
C          0.97250        2.38550       -1.60820
C          2.04120        2.69590       -2.36090
C          1.77230        0.26420       -0.19340
C          2.11250       -0.13390       -1.66850
C          3.32190       -0.35170       -2.22910
C          3.15880        0.27470        0.53110
C          4.16560        1.15000        0.36230
C         -0.47920        1.04770        1.95950
C         -1.93990        0.85680        2.51620
C         -2.68820        1.74810        3.20130
C          0.07130        2.16900        2.89510
C          0.21580        2.03890        4.22640
C          0.41370       -0.34170        2.08600
C         -0.36270       -1.31880        3.04370
C         -0.35270       -2.65890        3.16060
C          1.71710       -0.08670        2.90830
C          2.34060       -0.93060        3.75570
C          0.79780       -0.86940        0.55090
C         -0.59980       -1.08410       -0.29740
C         -1.52130       -2.08860        0.45590
C         -1.65430       -3.41200        0.22670
C         -0.28790       -1.81040       -1.64220
C         -1.17760       -2.12830       -2.59690
C         -1.35000        0.37530       -0.51150
C         -2.85310        0.38530       -0.08790
C         -3.79770       -0.51240       -0.41900
C         -1.39070        0.72050       -2.03520
C         -2.46320        0.98660       -2.81160
C          1.55310       -2.28520        0.68900
S          2.90820       -2.79480       -0.44070
C          3.19670       -4.41400        0.34360
H         -1.85990        5.73740       -0.13030
H         -3.35540        4.94570        0.53030
H         -3.36700        5.67450       -1.12040
H         -0.60450        3.77630        0.59750
H         -2.03620        3.01870        1.15950
H          2.28410        2.46640        1.55500
H          2.45590        4.71720        1.11360
H          1.40330        4.59050       -0.40660
H          0.05600        2.76740       -2.01000
H          1.90290        3.21390       -3.30480
H          3.04820        2.45260       -2.07220
H          1.34380       -0.13980       -2.40530
H          4.25150       -0.37890       -1.67840
H          3.38740       -0.55640       -3.29360
H          3.43410       -0.56760        1.15010
H          5.10230        0.99730        0.88900
H          4.09690        2.01110       -0.27880
H         -2.44880       -0.07810        2.39150
H         -2.35320        2.75390        3.42820
H         -3.68290        1.47000        3.53610
H          0.20220        3.17860        2.53910
H          0.01050        1.10520        4.73460
H          0.53140        2.88890        4.82290
H         -0.84560       -0.85830        3.89930
H          0.18080       -3.34550        2.53910
H         -0.90860       -3.11730        3.97320
H          2.21440        0.86060        2.84310
H          3.24300       -0.60670        4.26500
H          2.00050       -1.93640        3.95870
H         -2.15970       -1.74100        1.23920
H         -1.07670       -3.94740       -0.51780
H         -2.35060       -3.99210        0.82440
H          0.68660       -2.23750       -1.80700
H         -0.85590       -2.69710       -3.46360
H         -2.21320       -1.83970       -2.54900
H         -3.25600        1.26480        0.39400
H         -3.59030       -1.40740       -0.97960
H         -4.82660       -0.34320       -0.11750
H         -0.49930        0.65620       -2.61610
H         -2.32420        1.15060       -3.87610
H         -3.47230        1.09060       -2.43600
H          0.83980       -3.10830        0.57670
H          2.00000       -2.38740        1.68670
H          4.01340       -4.93560       -0.19590
H          2.27840       -5.03490        0.28980
H          3.49750       -4.27790        1.40320
