156
mol83-E-1
C         -4.47710        0.89350        4.70180
S         -3.15910       -0.06460        3.89210
C         -2.86880        1.16360        2.57290
Ge        -1.45400        0.65270        1.29340
Ge         0.45050        2.19920        1.65410
C         -0.06520        4.09760        1.47230
C          0.44160        4.94100        0.46400
F          1.33970        4.50310       -0.42890
C          0.07600        6.28950        0.40150
F          0.56160        7.07640       -0.59110
C         -0.76030        6.83640        1.37150
F         -1.10480        8.14680        1.31270
C         -1.22040        6.03890        2.41650
F         -2.00460        6.57870        3.38270
C         -0.86740        4.68740        2.47820
F         -1.28690        3.97310        3.54820
C          1.04620        2.36000        3.51390
C          2.04970        3.29010        3.84210
F          2.50080        4.16860        2.91820
C          2.52700        3.38990        5.15300
F          3.50500        4.28100        5.45180
C          1.97660        2.59660        6.16050
F          2.43500        2.69840        7.43280
C          0.92000        1.73440        5.86480
F          0.34050        1.01100        6.85470
C          0.44350        1.63290        4.55370
F         -0.62770        0.85830        4.31460
Ge         2.28500        1.30300        0.24900
C          3.28070        2.73110       -0.65380
C          4.09540        3.60370        0.09810
F          4.29850        3.39570        1.41890
C          4.77860        4.65410       -0.52370
F          5.55080        5.49040        0.21390
C          4.68660        4.82930       -1.90470
F          5.35120        5.84640       -2.50730
C          3.93920        3.93270       -2.66830
F          3.88430        4.07320       -4.01640
C          3.25740        2.88140       -2.04770
F          2.60270        2.00000       -2.81600
C          3.75500        0.55850        1.30800
C          5.06850        0.50770        0.78600
F          5.33360        0.87990       -0.49000
C          6.12750        0.04300        1.57340
F          7.38280       -0.00200        1.06180
C          5.89490       -0.38120        2.88190
F          6.92250       -0.83220        3.64330
C          4.59990       -0.35680        3.39900
F          4.37040       -0.78110        4.66590
C          3.53910        0.10210        2.61250
F          2.29660        0.06870        3.11590
Ge        -2.26320        0.99210       -1.01560
C         -2.74380        2.85580       -1.44010
C         -2.92650        3.81340       -0.42720
F         -2.77950        3.48330        0.86620
C         -3.31200        5.12240       -0.73550
F         -3.51890        6.02080        0.25840
C         -3.51200        5.50070       -2.06130
F         -3.87730        6.77260       -2.35840
C         -3.35820        4.56170       -3.07870
F         -3.57030        4.92270       -4.36900
C         -2.99860        3.24570       -2.77210
F         -2.88780        2.36780       -3.78900
C         -3.87850       -0.04760       -1.33560
C         -5.15110        0.54970       -1.44140
F         -5.32070        1.88270       -1.27120
C         -6.27790       -0.23780       -1.70700
F         -7.50080        0.34120       -1.80070
C         -6.14750       -1.61870       -1.87520
F         -7.24110       -2.37820       -2.13310
C         -4.89050       -2.21620       -1.77220
F         -4.75970       -3.55710       -1.92930
C         -3.76660       -1.43210       -1.50030
F         -2.55930       -2.01750       -1.38620
Ge        -0.54150        0.18950       -2.56200
C         -1.24840       -1.23880       -3.72080
C         -2.50640       -1.10440       -4.34550
F         -3.27530       -0.01660       -4.13980
C         -2.99830       -2.10350       -5.19100
F         -4.22350       -1.96870       -5.75740
C         -2.22610       -3.22940       -5.46770
F         -2.69580       -4.18810       -6.30430
C         -0.95820       -3.35350       -4.90410
F         -0.18050       -4.41620       -5.22670
C         -0.47520       -2.37070       -4.03350
F          0.76790       -2.51080       -3.54350
C         -0.08700        1.65780       -3.75880
C          0.04840        1.47940       -5.15060
F         -0.08020        0.25760       -5.72070
C          0.34420        2.57200       -5.97460
F          0.47990        2.39310       -7.31220
C          0.50290        3.84630       -5.42410
F          0.79000        4.90200       -6.22550
C          0.37190        4.02990       -4.04680
F          0.53340        5.26340       -3.50680
C          0.08120        2.93970       -3.22300
F         -0.01970        3.12180       -1.89240
Ge         1.41540       -0.48950       -1.22610
Ge         0.79010       -2.50170        0.08630
C          2.29290       -3.45910        0.89940
C          2.06380       -4.70390        1.51900
F          0.84590       -5.28860        1.46160
C          3.10960       -5.39480        2.13950
F          2.86960       -6.58280        2.74840
C          4.40490       -4.87760        2.10890
F          5.42060       -5.55250        2.70240
C          4.66110       -3.69060        1.42250
F          5.93200       -3.22720        1.32700
C          3.61510       -2.99560        0.80600
F          3.91220       -1.91910        0.06090
C          0.29860       -3.99760       -1.11360
C          1.31850       -4.62810       -1.86680
F          2.60060       -4.20170       -1.80460
C          1.03790       -5.73020       -2.68010
F          2.02950       -6.30790       -3.40330
C         -0.25530       -6.24150       -2.74570
F         -0.52630       -7.30870       -3.53780
C         -1.26520       -5.66530       -1.97990
F         -2.51710       -6.18690       -2.01380
C         -0.98800       -4.57140       -1.15380
F         -1.97560       -4.13480       -0.36280
Ge        -0.83470       -1.71540        1.81310
C         -2.35230       -2.94920        1.94900
C         -3.65670       -2.56180        1.61000
F         -3.91700       -1.30000        1.23970
C         -4.71970       -3.46620        1.69700
F         -5.97060       -3.07700        1.34480
C         -4.49980       -4.76170        2.16460
F         -5.53190       -5.63710        2.25300
C         -3.22330       -5.14050        2.58080
F         -3.01870       -6.38000        3.09220
C         -2.15950       -4.23630        2.49400
F         -0.96190       -4.59860        3.00700
C         -0.32460       -1.88640        3.71780
C         -1.33050       -1.81640        4.71350
F         -2.63270       -1.64370        4.38880
C         -1.01460       -1.96850        6.06710
F         -1.99140       -1.88010        7.00430
C          0.29610       -2.23060        6.45590
F          0.59890       -2.38400        7.76890
C          1.29000       -2.36110        5.48970
F          2.55820       -2.66060        5.86580
C          0.98200       -2.20460        4.13420
F          1.97250       -2.37650        3.24790
C          2.94570       -0.92200       -2.39740
S          2.68000       -0.49470       -4.15260
C          4.31300       -1.08290       -4.69820
H         -4.08330        1.87520        5.03790
H         -5.32280        1.04730        3.99950
H         -4.84170        0.33090        5.58530
H         -3.80980        1.31820        2.02420
H         -2.59720        2.11870        3.04280
H          3.82830       -0.36620       -2.02940
H          3.16580       -1.99860       -2.33050
H          5.11460       -0.50920       -4.18800
H          4.40420       -0.93130       -5.79310
H          4.42310       -2.16450       -4.47440
