156
mol83-C-0
C          0.02100        6.37650       -1.24380
S         -0.07930        4.68100       -1.89610
C          0.33130        3.88670       -0.30870
Ge         0.37720        1.91750       -0.39450
Ge         2.73900        1.26200       -0.06050
C          3.49110        2.34380        1.39800
C          4.07480        3.60520        1.13950
F          4.02270        4.16970       -0.08920
C          4.69420        4.32740        2.16580
F          5.26120        5.53060        1.90000
C          4.72400        3.81810        3.46360
F          5.32490        4.51960        4.45660
C          4.09630        2.60610        3.74500
F          4.06730        2.13760        5.01770
C          3.46180        1.89240        2.72430
F          2.74540        0.80760        3.05090
C          3.96520        1.79060       -1.49730
C          3.58570        2.72650       -2.47300
F          2.36130        3.28210       -2.44590
C          4.49170        3.15130       -3.45060
F          4.10940        4.06380       -4.37840
C          5.79630        2.65870       -3.45730
F          6.67230        3.06650       -4.40890
C          6.20740        1.77410       -2.46080
F          7.48680        1.32410       -2.44160
C          5.30850        1.36540       -1.47030
F          5.75850        0.55290       -0.49000
Ge         2.84350       -1.19510        0.26030
C          4.25740       -2.04310       -0.82710
C          4.49170       -1.60630       -2.13650
F          3.68590       -0.69180       -2.68930
C          5.54500       -2.11830       -2.89880
F          5.75820       -1.65650       -4.15630
C          6.36880       -3.11000       -2.37280
F          7.38470       -3.61550       -3.11550
C          6.13440       -3.59250       -1.08660
F          6.92110       -4.57590       -0.58230
C          5.09030       -3.06910       -0.31490
F          4.89250       -3.60740        0.91020
C          3.45130       -1.66760        2.06530
C          4.64670       -1.11130        2.56730
F          5.33050       -0.18640        1.85910
C          5.15290       -1.50430        3.80980
F          6.28260       -0.93010        4.29320
C          4.51370       -2.50410        4.54120
F          5.01650       -2.89890        5.73730
C          3.37690       -3.12230        4.02260
F          2.79550       -4.14220        4.70180
C          2.85050       -2.71190        2.79270
F          1.78860       -3.37860        2.30050
Ge        -0.98200        1.13180        1.51560
C         -2.74380        2.00540        1.46810
C         -2.95500        3.25350        2.09840
F         -1.93110        3.95940        2.63100
C         -4.23540        3.81550        2.15540
F         -4.42480        5.00690        2.77570
C         -5.31720        3.15900        1.56980
F         -6.55700        3.70570        1.62620
C         -5.11120        1.96250        0.88580
F         -6.14760        1.35590        0.25490
C         -3.82970        1.40920        0.81290
F         -3.63710        0.34340        0.02370
C         -0.38740        1.76920        3.28180
C          0.52650        2.83150        3.41790
F          1.04070        3.44460        2.33690
C          0.86330        3.33200        4.68050
F          1.73020        4.36950        4.78910
C          0.28710        2.78910        5.82710
F          0.62050        3.27160        7.05000
C         -0.65890        1.77300        5.71060
F         -1.24710        1.26610        6.82270
C         -1.01630        1.28750        4.44890
F         -1.96370        0.33030        4.37990
Ge        -1.04310       -1.35280        1.41390
C         -0.64840       -2.26050        3.11370
C         -1.20240       -3.52770        3.40840
F         -1.90330       -4.22560        2.48530
C         -1.00690       -4.11670        4.66280
F         -1.55650       -5.32640        4.93550
C         -0.24230       -3.46820        5.63170
F         -0.05410       -4.04110        6.84640
C          0.36670       -2.25140        5.33080
F          1.16830       -1.65060        6.24540
C          0.18670       -1.67060        4.07220
F          0.90390       -0.58210        3.76150
C         -2.87620       -2.02110        1.14470
C         -3.15980       -3.06760        0.24660
F         -2.18220       -3.64350       -0.47550
C         -4.45280       -3.59190        0.13980
F         -4.70100       -4.61400       -0.71670
C         -5.48170       -3.08890        0.93330
F         -6.73540       -3.59440        0.82290
C         -5.21040       -2.08970        1.86560
F         -6.20250       -1.62220        2.66360
C         -3.91420       -1.58090        1.99240
F         -3.68810       -0.64170        2.93330
Ge         0.59370       -2.06380       -0.29760
Ge        -0.19060       -1.36890       -2.53830
C          1.00100       -1.83730       -4.02430
C          2.04940       -2.75640       -3.85700
F          2.26380       -3.33730       -2.66330
C          2.84810       -3.13850       -4.94010
F          3.84960       -4.03560       -4.76050
C          2.60010       -2.61970       -6.21040
F          3.37850       -2.98600       -7.25870
C          1.52630       -1.75160       -6.40610
F          1.25830       -1.27640       -7.64790
C          0.71390       -1.38570       -5.32800
F         -0.34950       -0.58850       -5.56660
C         -1.74200       -2.47080       -3.03060
C         -3.04820       -2.05270       -2.74280
F         -3.25660       -0.99100       -1.95170
C         -4.15520       -2.77820       -3.19240
F         -5.40910       -2.34190       -2.91450
C         -3.97190       -3.97010       -3.89110
F         -5.04550       -4.68350       -4.31260
C         -2.68140       -4.44790       -4.11700
F         -2.50230       -5.63250       -4.75290
C         -1.57210       -3.71350       -3.68300
F         -0.34420       -4.24850       -3.87560
Ge        -0.57510        1.08120       -2.52090
C          0.21040        1.98400       -4.09190
C         -0.46960        3.01370       -4.78900
F         -1.64650        3.51780       -4.35250
C          0.08200        3.57690       -5.94580
F         -0.58070        4.56330       -6.60000
C          1.31100        3.13090       -6.42840
F          1.83950        3.67500       -7.55270
C          2.00210        2.13590       -5.74200
F          3.20630        1.70950       -6.19790
C          1.46140        1.58430       -4.57760
F          2.17390        0.66750       -3.91190
C         -2.47120        1.52150       -2.76860
C         -3.09390        2.53540       -2.01690
F         -2.42490        3.19240       -1.04970
C         -4.40890        2.92610       -2.29380
F         -4.98740        3.91710       -1.57080
C         -5.11890        2.31850       -3.32820
F         -6.39580        2.69410       -3.58860
C         -4.50030        1.35010       -4.11720
F         -5.17540        0.78710       -5.15020
C         -3.17710        0.97740       -3.86220
F         -2.59130        0.08410       -4.68880
C          0.55790       -4.03510       -0.28460
S          2.20990       -4.79840       -0.19790
C          1.58490       -6.50690       -0.21590
H         -0.19960        7.09190       -2.06210
H          1.04190        6.57650       -0.85690
H         -0.72340        6.51760       -0.43270
H          1.32700        4.24680        0.01800
H         -0.42790        4.18580        0.44120
H          0.05750       -4.38280       -1.21010
H         -0.03010       -4.36770        0.59390
H          2.44440       -7.20640       -0.17000
H          0.93080       -6.68300        0.66340
H          1.01740       -6.69570       -1.15100
