156
mol82-E-2
C         -2.06110        0.06870       -6.61390
S         -0.82530       -0.11560       -5.29160
C         -2.04150       -0.01840       -3.94050
Ge        -1.19580       -0.17180       -2.17940
Ge         1.16350        0.23930       -2.53300
C          1.86620       -1.05840       -3.77850
C          2.58880       -2.17050       -3.33550
C          3.09170       -3.09900       -4.25060
C          2.87340       -2.91950       -5.61880
C          2.14910       -1.81260       -6.06970
C          1.64680       -0.88410       -5.15280
C          1.47890        1.92600       -3.42230
C          2.79390        2.37510       -3.60520
C          3.04010        3.59780       -4.23630
C          1.97400        4.36830       -4.70710
C          0.66290        3.91130       -4.55350
C          0.41670        2.69210       -3.91550
Ge         2.31200        0.26410       -0.40480
C          3.86460       -0.88720       -0.43200
C          4.03820       -1.88670        0.53290
C          5.17340       -2.70180        0.50780
C          6.14140       -2.52290       -0.48340
C          5.98050       -1.51900       -1.44170
C          4.85010       -0.69750       -1.41090
C          2.99640        2.04500       -0.11380
C          4.25530        2.24700        0.47010
C          4.73770        3.54490        0.66730
C          3.97040        4.64490        0.27250
C          2.72020        4.44630       -0.31870
C          2.23710        3.14890       -0.50540
Ge        -2.11910        1.50700       -0.68350
C         -1.98530        3.24760       -1.53070
C         -2.82190        3.53380       -2.62140
C         -2.76880        4.78230       -3.24760
C         -1.88740        5.76030       -2.78240
C         -1.06550        5.49100       -1.68640
C         -1.12180        4.24340       -1.05900
C         -4.03700        1.36630       -0.51960
C         -4.75180        0.38790       -1.21740
C         -6.14320        0.31680       -1.10720
C         -6.82900        1.23590       -0.30880
C         -6.12330        2.23410        0.36860
C         -4.73180        2.30620        0.25510
Ge        -1.04730        1.29470        1.49690
C         -0.41670        3.00930        2.11900
C          0.93120        3.21380        2.43030
C          1.36600        4.45460        2.90410
C          0.44980        5.49410        3.08400
C         -0.90340        5.28770        2.80200
C         -1.33770        4.04510        2.33110
C         -2.21110        0.81360        2.97300
C         -1.73750        0.97110        4.28540
C         -2.55140        0.65300        5.37630
C         -3.85030        0.18540        5.16590
C         -4.33620        0.04390        3.86470
C         -3.52250        0.36540        2.77480
Ge         0.74170       -0.34310        1.33630
Ge        -0.17230       -2.52130        0.80730
C          1.25190       -3.82430        0.75390
C          1.79290       -4.25720       -0.46070
C          2.82200       -5.20200       -0.48130
C          3.31770       -5.72060        0.71760
C          2.78510       -5.29070        1.93610
C          1.75490       -4.34550        1.95510
C         -1.32730       -3.18140        2.20930
C         -2.03040       -4.37880        2.01850
C         -2.87890       -4.86530        3.01720
C         -3.01260       -4.16860        4.22080
C         -2.29140       -2.99020        4.42760
C         -1.44900       -2.50000        3.42550
Ge        -1.44730       -2.39140       -1.24360
C         -0.92390       -3.77850       -2.48420
C         -0.96700       -5.12040       -2.08070
C         -0.59560       -6.13540       -2.96710
C         -0.19640       -5.81630       -4.26750
C         -0.17310       -4.48230       -4.68170
C         -0.53520       -3.46670       -3.79250
C         -3.29710       -2.74760       -0.82310
C         -3.84170       -2.25700        0.36470
C         -5.17360       -2.51650        0.69650
C         -5.97310       -3.26630       -0.17000
C         -5.43550       -3.76180       -1.36160
C         -4.09880       -3.50850       -1.68620
C          1.61690       -0.53260        3.07940
S          3.23640        0.29770        3.12310
C          3.58810       -0.15900        4.84860
H         -2.79950       -0.75850       -6.56400
H         -2.58130        1.04430       -6.51580
H         -1.54720        0.03310       -7.59620
H         -2.56810        0.95530       -3.99190
H         -2.78270       -0.83030       -4.05880
H          2.76020       -2.32420       -2.28720
H          3.64670       -3.95880       -3.89800
H          3.25980       -3.63980       -6.32790
H          1.97610       -1.67450       -7.12900
H          1.09000       -0.03020       -5.51540
H          3.62620        1.78850       -3.24650
H          4.05690        3.94680       -4.36110
H          2.16400        5.31410       -5.19760
H         -0.16230        4.50030       -4.93140
H         -0.59740        2.34870       -3.81470
H          3.30380       -2.03430        1.30700
H          5.30230       -3.47190        1.25680
H          7.01770       -3.15750       -0.50520
H          6.73260       -1.37560       -2.20660
H          4.73870        0.07670       -2.15530
H          4.86220        1.40610        0.77730
H          5.70710        3.69790        1.12370
H          4.34450        5.64910        0.42360
H          2.12470        5.29500       -0.62850
H          1.27970        2.99380       -0.96830
H         -3.52590        2.79600       -2.98060
H         -3.41350        4.99220       -4.09110
H         -1.84400        6.72660       -3.26790
H         -0.38650        6.24990       -1.31970
H         -0.48920        4.06710       -0.21350
H         -4.23640       -0.32350       -1.83710
H         -6.68870       -0.45200       -1.63900
H         -7.90610        1.17930       -0.22110
H         -6.65410        2.95300        0.97890
H         -4.19560        3.08700        0.77620
H          1.64560        2.42130        2.29890
H          2.41320        4.61000        3.12960
H          0.78680        6.45590        3.44830
H         -1.61560        6.08870        2.95090
H         -2.38770        3.89260        2.12370
H         -0.74230        1.35300        4.46680
H         -2.17610        0.77240        6.38420
H         -4.48040       -0.06320        6.00990
H         -5.34490       -0.31180        3.69940
H         -3.92360        0.25870        1.78810
H          1.42560       -3.86400       -1.38940
H          3.23710       -5.52840       -1.42610
H          4.11690       -6.45010        0.70270
H          3.17070       -5.68900        2.86560
H          1.34970       -4.02320        2.90510
H         -1.93480       -4.92670        1.09310
H         -3.43110       -5.78240        2.85830
H         -3.66770       -4.54570        4.99520
H         -2.38300       -2.45820        5.36530
H         -0.89210       -1.59740        3.60400
H         -1.27640       -5.38010       -1.07940
H         -0.61970       -7.16880       -2.64670
H          0.08870       -6.60190       -4.95500
H          0.12570       -4.23520       -5.69200
H         -0.51670       -2.44370       -4.12930
H         -3.22250       -1.68820        1.03420
H         -5.58520       -2.13370        1.62120
H         -7.00690       -3.46370        0.08180
H         -6.05360       -4.34420       -2.03240
H         -3.69630       -3.90180       -2.60960
H          0.96510       -0.10060        3.86120
H          1.75400       -1.61260        3.28630
H          4.57410        0.25790        5.13880
H          3.62080       -1.26370        4.95110
H          2.80920        0.25870        5.52010
