156
mol82-D-1
C          5.23990        2.83810       -2.84910
S          4.40250        1.53510       -1.89510
C          2.76480        2.32630       -1.97320
Ge         1.39700        1.27620       -1.04250
Ge        -0.61190        1.16390       -2.40640
C         -1.29650        2.91380       -2.84720
C         -0.65400        4.07380       -2.40310
C         -1.14880        5.33300       -2.75340
C         -2.28200        5.43790       -3.56410
C         -2.91200        4.28260       -4.03490
C         -2.41430        3.02350       -3.68660
C         -0.13490        0.53780       -4.18000
C         -0.52620       -0.71820       -4.65880
C         -0.17710       -1.12740       -5.94880
C          0.55260       -0.27480       -6.77950
C          0.92900        0.98910       -6.32050
C          0.58200        1.39600       -5.02890
Ge        -2.29360       -0.14990       -1.22570
C         -3.91510        0.79340       -0.72980
C         -5.03540        0.04680       -0.33100
C         -6.22790        0.68780        0.01670
C         -6.31540        2.08020       -0.04200
C         -5.21240        2.82940       -0.45590
C         -4.02170        2.18710       -0.80650
C         -3.03940       -1.50360       -2.38150
C         -2.97850       -2.85840       -2.04040
C         -3.54670       -3.82330       -2.87670
C         -4.19360       -3.43520       -4.05290
C         -4.28310       -2.08060       -4.38520
C         -3.71710       -1.11600       -3.54630
Ge         2.33250       -0.93840       -0.75920
C          2.91290       -1.69900       -2.43850
C          2.90800       -0.94090       -3.61480
C          3.32820       -1.50820       -4.82130
C          3.76160       -2.83570       -4.85680
C          3.78950       -3.59130       -3.68190
C          3.37640       -3.02130       -2.47440
C          3.96560       -0.82390        0.26510
C          3.98860       -1.13250        1.62880
C          5.17940       -1.04620        2.35470
C          6.35780       -0.64890        1.71810
C          6.34290       -0.33520        0.35620
C          5.15050       -0.42250       -0.36900
Ge         0.67380       -2.40270        0.21730
C          1.38660       -3.35090        1.74360
C          0.73880       -3.31130        2.98410
C          1.25930       -4.01400        4.07440
C          2.43190       -4.75960        3.93110
C          3.07640       -4.81380        2.69260
C          2.55070       -4.11890        1.59970
C          0.23960       -3.76510       -1.07880
C          0.15960       -3.43040       -2.43150
C         -0.13770       -4.40400       -3.38830
C         -0.36560       -5.72380       -2.99040
C         -0.28680       -6.06780       -1.63760
C          0.02040       -5.09250       -0.68330
Ge        -1.28830       -1.09670        0.77470
Ge        -0.61780        0.67300        2.28400
C         -2.13120        1.69210        2.92180
C         -1.91470        2.82610        3.71670
C         -2.99690        3.58140        4.17750
C         -4.30240        3.19510        3.86410
C         -4.52470        2.04900        3.09670
C         -3.44200        1.29830        2.62970
C          0.11270       -0.09580        3.89760
C          1.49380       -0.17610        4.10120
C          2.00550       -0.73390        5.27570
C          1.13520       -1.21650        6.25630
C         -0.24640       -1.14330        6.05920
C         -0.75700       -0.58440        4.88360
Ge         0.90030        2.17630        1.15040
C          2.49440        2.48570        2.19920
C          2.37750        2.96370        3.51190
C          3.52080        3.19640        4.28190
C          4.78770        2.96990        3.73810
C          4.91050        2.51500        2.42300
C          3.76720        2.27310        1.65630
C          0.03970        3.89730        1.00140
C          0.76670        5.08410        1.17290
C          0.12470        6.32230        1.06750
C         -1.24670        6.37970        0.80180
C         -1.97540        5.19880        0.64060
C         -1.32930        3.96390        0.73680
C         -2.62330       -2.15600        1.74200
S         -2.36000       -3.94450        1.52820
C         -3.77730       -4.42540        2.56260
H          6.31530        2.58290       -2.94270
H          5.14580        3.81330       -2.32730
H          4.79810        2.91030       -3.86470
H          2.46120        2.43470       -3.03350
H          2.82390        3.33130       -1.51570
H          0.22020        4.00670       -1.78120
H         -0.65470        6.22650       -2.39440
H         -2.66690        6.41290       -3.83320
H         -3.78350        4.36250       -4.67150
H         -2.90360        2.13580       -4.06250
H         -1.09570       -1.38680       -4.04680
H         -0.47580       -2.10490       -6.30490
H          0.82260       -0.59150       -7.77840
H          1.48640        1.65530       -6.96590
H          0.86220        2.38640       -4.69770
H         -4.99210       -1.03320       -0.30110
H         -7.08460        0.10450        0.32830
H         -7.23760        2.57750        0.22900
H         -5.28010        3.90820       -0.50890
H         -3.19490        2.78450       -1.13140
H         -2.48600       -3.16970       -1.13700
H         -3.48330       -4.87110       -2.61340
H         -4.63120       -4.18240       -4.70190
H         -4.79300       -1.77800       -5.29060
H         -3.79880       -0.07020       -3.80770
H          2.58750        0.08560       -3.60180
H          3.32070       -0.91780       -5.72810
H          4.08300       -3.27570       -5.79180
H          4.13190       -4.61770       -3.70640
H          3.40340       -3.61510       -1.57310
H          3.09020       -1.43440        2.13240
H          5.18690       -1.28340        3.41070
H          7.27990       -0.57870        2.28020
H          7.25420       -0.02380       -0.13720
H          5.15320       -0.17950       -1.42330
H         -0.16900       -2.74530        3.11010
H          0.75360       -3.98010        5.03040
H          2.83710       -5.29950        4.77690
H          3.98170       -5.39580        2.57870
H          3.05640       -4.17110        0.64720
H          0.34410       -2.41650       -2.73660
H         -0.19460       -4.13440       -4.43470
H         -0.60180       -6.47880       -3.72890
H         -0.46140       -7.09020       -1.32880
H          0.08150       -5.37490        0.35880
H         -0.91050        3.13440        3.96640
H         -2.82310        4.46470        4.77800
H         -5.14080        3.77820        4.22200
H         -5.53590        1.74080        2.86640
H         -3.62970        0.41250        2.04950
H          2.17460        0.18600        3.35460
H          3.07610       -0.79520        5.42290
H          1.53080       -1.65150        7.16480
H         -0.92140       -1.52020        6.81650
H         -1.82880       -0.53140        4.74490
H          1.40420        3.14540        3.94250
H          3.42440        3.55440        5.29860
H          5.67320        3.15240        4.33280
H          5.89160        2.34950        1.99740
H          3.87950        1.92750        0.64230
H          1.82720        5.05590        1.38260
H          0.68960        7.23660        1.19440
H         -1.74360        7.33780        0.72190
H         -3.03760        5.23910        0.43780
H         -1.88990        3.05410        0.62210
H         -2.55720       -1.90280        2.81900
H         -3.63210       -1.89000        1.37550
H         -4.71710       -4.01790        2.13530
H         -3.63920       -4.04780        3.59720
H         -3.84530       -5.53200        2.59040
