156
mol83-A-0
C         -3.69630       -4.67430        1.69100
S         -3.18730       -2.93530        1.52670
C         -1.71190       -3.30610        0.51850
Ge        -0.68270       -1.70340       -0.00180
Ge         1.49610       -1.68150        1.21150
C          2.40610       -3.42780        0.99830
C          3.63030       -3.58630        0.31770
F          4.24650       -2.55320       -0.26750
C          4.27550       -4.82620        0.26970
F          5.44760       -4.95270       -0.40160
C          3.73250       -5.92740        0.92540
F          4.36650       -7.12560        0.88340
C          2.54010       -5.79200        1.63080
F          2.01990       -6.85930        2.28690
C          1.88590       -4.55730        1.67820
F          0.76620       -4.47020        2.43290
C          1.34640       -1.84590        3.16070
C          2.50860       -2.05380        3.93190
F          3.71180       -2.20940        3.33730
C          2.43080       -2.17270        5.32340
F          3.56070       -2.34820        6.05280
C          1.19000       -2.13980        5.95980
F          1.11360       -2.26300        7.30830
C          0.02530       -2.03130        5.20020
F         -1.18570       -2.07200        5.80970
C          0.10340       -1.90870        3.80920
F         -1.03630       -1.92210        3.09990
Ge         2.69910        0.41130        0.53780
C          3.19850        1.72720        1.93130
C          4.15770        2.72270        1.61910
F          4.70430        2.81060        0.38450
C          4.60840        3.62030        2.59180
F          5.52430        4.56670        2.26710
C          4.13250        3.53680        3.89730
F          4.57350        4.40680        4.83970
C          3.20800        2.55210        4.23360
F          2.75870        2.45790        5.51020
C          2.75710        1.64680        3.26760
F          1.93000        0.67810        3.67620
C          4.55720        0.05400        0.01940
C          5.48080       -0.37480        0.99510
F          5.11650       -0.47520        2.29220
C          6.81110       -0.63810        0.65250
F          7.68100       -1.07310        1.59800
C          7.25190       -0.42680       -0.65390
F          8.54360       -0.67460       -0.98450
C          6.37280        0.08850       -1.60610
F          6.81680        0.36350       -2.85790
C          5.04150        0.34850       -1.26440
F          4.25370        0.95020       -2.16950
Ge        -0.25690       -2.00770       -2.40050
C          0.90450       -3.54000       -2.82880
C          1.09310       -4.59130       -1.91410
F          0.43080       -4.60720       -0.74400
C          1.87090       -5.70490       -2.25050
F          1.99410       -6.73520       -1.37830
C          2.47690       -5.78480       -3.50250
F          3.23680       -6.86140       -3.82330
C          2.25800       -4.77910       -4.44140
F          2.80880       -4.87650       -5.67710
C          1.45070       -3.68330       -4.12120
F          1.21290       -2.76880       -5.08300
C         -1.90510       -2.52440       -3.33250
C         -2.75950       -1.55670       -3.87940
F         -2.53900       -0.25430       -3.64950
C         -3.89520       -1.92440       -4.60650
F         -4.70150       -0.96870       -5.13210
C         -4.21790       -3.27120       -4.76370
F         -5.32750       -3.62820       -5.45720
C         -3.41490       -4.24880       -4.17670
F         -3.74930       -5.55790       -4.29640
C         -2.27060       -3.88320       -3.45880
F         -1.55080       -4.86530       -2.86940
Ge         0.79800        0.08020       -3.17380
C         -0.24260        0.94990       -4.59920
C         -0.45420        2.34070       -4.61760
F          0.00250        3.12550       -3.62570
C         -1.13330        2.94930       -5.67840
F         -1.31870        4.29310       -5.68190
C         -1.61120        2.18140       -6.73870
F         -2.27570        2.77350       -7.76200
C         -1.39160        0.80530       -6.75080
F         -1.84490        0.05770       -7.78780
C         -0.69790        0.19530       -5.70110
F         -0.49790       -1.13790       -5.75920
C          2.48020       -0.42080       -4.02430
C          3.30580       -1.34270       -3.37390
F          2.95490       -1.79860       -2.15680
C          4.49140       -1.78900       -3.96300
F          5.27070       -2.69260       -3.31830
C          4.87640       -1.29670       -5.21050
F          6.03090       -1.72150       -5.78130
C          4.07590       -0.35720       -5.86460
F          4.45850        0.13220       -7.07040
C          2.88150        0.08150       -5.28020
F          2.14860        1.01040       -5.93850
Ge         1.32470        1.51770       -1.22460
Ge        -0.76190        2.32900       -0.21680
C         -1.64470        3.61830       -1.40440
C         -1.34220        4.99640       -1.33080
F         -0.37560        5.46370       -0.50780
C         -2.01900        5.91770       -2.13800
F         -1.72360        7.23880       -2.05100
C         -2.99120        5.48220       -3.03800
F         -3.64410        6.37700       -3.82050
C         -3.26550        4.12060       -3.15480
F         -4.17360        3.68800       -4.06500
C         -2.58200        3.19750       -2.35840
F         -2.78530        1.88980       -2.57370
C         -0.50750        3.42910        1.39730
C          0.72560        4.04660        1.67320
F          1.74730        3.95260        0.80420
C          0.87960        4.87570        2.78990
F          2.05820        5.50860        3.00790
C         -0.19250        5.09790        3.65160
F         -0.03860        5.89560        4.73760
C         -1.43590        4.53850        3.36580
F         -2.49320        4.79050        4.17740
C         -1.60230        3.73990        2.23030
F         -2.83840        3.27520        1.95760
Ge        -2.07320        0.31940        0.34170
C         -3.81850        0.30030       -0.56610
C         -4.64240        1.44530       -0.53550
F         -4.22020        2.58850        0.04370
C         -5.90910        1.43370       -1.12760
F         -6.67450        2.55340       -1.11130
C         -6.39100        0.27180       -1.72740
F         -7.62370        0.25890       -2.29290
C         -5.60800       -0.88100       -1.73160
F         -6.08960       -2.02100       -2.28680
C         -4.33310       -0.86890       -1.15590
F         -3.62210       -2.01030       -1.16980
C         -2.50410        0.43840        2.24020
C         -3.80130        0.20950        2.74590
F         -4.81560       -0.18580        1.94080
C         -4.06080        0.36290        4.11330
F         -5.30890        0.13770        4.59410
C         -3.03900        0.74600        4.98530
F         -3.29520        0.89660        6.30850
C         -1.75140        0.96280        4.49390
F         -0.75290        1.32370        5.33800
C         -1.48890        0.79830        3.13150
F         -0.23790        0.97950        2.66830
C          2.23770        3.15590       -1.84220
S          2.88380        3.03830       -3.54500
C          3.57040        4.72310       -3.56040
H         -2.89830       -5.25960        2.19370
H         -3.90620       -5.10600        0.69020
H         -4.61910       -4.72420        2.30420
H         -2.02910       -3.83080       -0.40460
H         -1.06610       -3.98600        1.09270
H          3.07890        3.38200       -1.17100
H          1.51830        3.99710       -1.78720
H          4.32970        4.83310       -2.75830
H          4.05460        4.90670       -4.54130
H          2.75910        5.46640       -3.41550
