48
mol81-A-0
C          5.67700       -2.61700        0.81770
S          4.42600       -1.35170        1.19910
C          3.20500       -1.99500        0.01210
Ge         1.60430       -0.89580        0.06860
Ge        -0.07430       -1.84920       -1.33420
C          0.68570       -2.32610       -3.00040
N          1.15130       -2.61590       -4.01900
C         -0.79920       -3.37510       -0.48140
N         -1.24250       -4.30650        0.04230
Ge        -1.79100       -0.21970       -1.66440
C         -1.47650        0.72000       -3.27680
N         -1.28210        1.29580       -4.26110
C         -3.48050       -1.07050       -1.71840
N         -4.51330       -1.59090       -1.74930
Ge         2.05130        1.32060       -0.70260
C          2.23930        1.29240       -2.58550
N          2.35190        1.27360       -3.73670
C          3.62850        1.98800        0.10290
N          4.59190        2.39550        0.59700
Ge         0.19910        2.70630       -0.10080
C         -0.11900        3.98320       -1.46050
N         -0.31460        4.76250       -2.29290
C          0.56320        3.57330        1.54160
N          0.78470        4.10100        2.54710
Ge        -1.72600        1.31780        0.15930
Ge        -1.49680        0.06750        2.18200
C         -2.71690       -1.37880        2.15480
N         -3.46200       -2.26350        2.13550
C         -1.82990        1.17720        3.67850
N         -2.03230        1.85680        4.59260
Ge         0.73930       -0.76970        2.29070
C          0.74490       -2.49310        3.07220
N          0.74800       -3.54750        3.54810
C          1.81130        0.41470        3.30560
N          2.46700        1.14030        3.92350
C         -3.34960        2.38440        0.17350
S         -3.22910        3.65740        1.46890
C         -4.87060        4.36490        1.12770
H          5.27720       -3.62820        1.04060
H          5.96840       -2.55530       -0.25150
H          6.57420       -2.43940        1.44510
H          3.62020       -1.96850       -1.01680
H          2.92990       -3.03660        0.27830
H         -4.21360        1.71670        0.37170
H         -3.46760        2.86440       -0.82010
H         -5.05260        5.20900        1.82380
H         -4.91370        4.74320        0.08510
H         -5.65660        3.59650        1.28140
