156
mol83-E-2
C         -4.12020        2.53850        4.46000
S         -2.57770        2.61340        3.49790
C         -2.89170        1.06160        2.58900
Ge        -1.47100        0.57780        1.30540
Ge         0.41890        2.13770        1.68510
C         -0.11410        4.03310        1.52360
C          0.38600        4.89210        0.52520
F          1.28890        4.47230       -0.37140
C          0.00800        6.23780        0.47710
F          0.48740        7.04000       -0.50620
C         -0.83410        6.76630        1.45220
F         -1.19060        8.07420        1.40740
C         -1.28800        5.95320        2.48790
F         -2.07800        6.47520        3.45920
C         -0.92270        4.60440        2.53510
F         -1.33660        3.87460        3.59670
C          1.01130        2.28340        3.54730
C          2.00590        3.21900        3.88680
F          2.44970        4.11170        2.97310
C          2.48090        3.30880        5.19910
F          3.45040        4.20540        5.50880
C          1.93680        2.49940        6.19730
F          2.39310        2.59140        7.47120
C          0.88850        1.63080        5.89100
F          0.31470        0.89140        6.87230
C          0.41420        1.53940        4.57830
F         -0.64960        0.75770        4.32960
Ge         2.26290        1.27370        0.27220
C          3.24630        2.72080       -0.61370
C          4.05220        3.59240        0.14860
F          4.25590        3.37180        1.46720
C          4.72640        4.65590       -0.46090
F          5.49010        5.49100        0.28670
C          4.63410        4.84530       -1.83990
F          5.29000        5.87510       -2.43060
C          3.89570        3.95050       -2.61420
F          3.84090        4.10520       -3.96070
C          3.22300        2.88610       -2.00590
F          2.57720        2.00730       -2.78450
C          3.73860        0.53110        1.32460
C          5.05300        0.49820        0.80350
F          5.31590        0.88680       -0.46800
C          6.11540        0.03450        1.58690
F          7.37160        0.00670        1.07620
C          5.88550       -0.40610        2.89040
F          6.91640       -0.85610        3.64790
C          4.58980       -0.39930        3.40630
F          4.36300       -0.83960        4.66820
C          3.52560        0.05850        2.62380
F          2.28300        0.00820        3.12550
Ge        -2.28100        0.93520       -1.00050
C         -2.77830        2.79890       -1.40510
C         -2.97080        3.74360       -0.38190
F         -2.82200        3.40070        0.90790
C         -3.36800        5.05230       -0.67620
F         -3.58410        5.93780        0.32730
C         -3.57010        5.44340       -1.99800
F         -3.94680        6.71510       -2.28150
C         -3.40680        4.51700       -3.02550
F         -3.62090        4.89020       -4.31200
C         -3.03540        3.20110       -2.73300
F         -2.91550        2.33550       -3.75940
C         -3.88650       -0.11570       -1.33380
C         -5.16440        0.47110       -1.43430
F         -5.34640        1.80050       -1.24970
C         -6.28360       -0.32380       -1.70970
F         -7.51170        0.24500       -1.79850
C         -6.14040       -1.70150       -1.89300
F         -7.22680       -2.46810       -2.16040
C         -4.87810       -2.28860       -1.79520
F         -4.73490       -3.62640       -1.96690
C         -3.76170       -1.49730       -1.51350
F         -2.54920       -2.07280       -1.40450
Ge        -0.55060        0.16540       -2.55390
C         -1.24320       -1.25650       -3.72900
C         -2.50170       -1.12670       -4.35360
F         -3.28090       -0.04840       -4.13680
C         -2.98360       -2.12090       -5.21050
F         -4.20940       -1.99120       -5.77670
C         -2.20090       -3.23660       -5.49870
F         -2.66090       -4.19040       -6.34630
C         -0.93250       -3.35530       -4.93520
F         -0.14470       -4.40720       -5.26860
C         -0.45930       -2.37770       -4.05330
F          0.78450       -2.51190       -3.56360
C         -0.10840        1.65080       -3.73390
C          0.03000        1.48900       -5.12750
F         -0.08690        0.27240       -5.71120
C          0.31660        2.59330       -5.93910
F          0.45520        2.43040       -7.27850
C          0.46310        3.86280       -5.37450
F          0.74120        4.92990       -6.16390
C          0.32900        4.03010       -3.99540
F          0.47870        5.25910       -3.44170
C          0.04750        2.92830       -3.18390
F         -0.05630        3.09480       -1.85150
Ge         1.41110       -0.51030       -1.22340
Ge         0.80310       -2.54250        0.06610
C          2.31380       -3.49490        0.87030
C          2.09550       -4.74860        1.47600
F          0.88300       -5.34370        1.41090
C          3.14700       -5.43660        2.09000
F          2.91730       -6.63340        2.68550
C          4.43750       -4.90730        2.06640
F          5.45880       -5.57930        2.65350
C          4.68350       -3.71040        1.39340
F          5.95020       -3.23450        1.30440
C          3.63180       -3.01830        0.78340
F          3.91970       -1.93110        0.05060
C          0.32650       -4.02950       -1.15060
C          1.35280       -4.64230       -1.90960
F          2.63100       -4.20490       -1.84130
C          1.08320       -5.73800       -2.73530
F          2.08080       -6.29850       -3.46370
C         -0.20530       -6.26030       -2.80790
F         -0.46560       -7.32110       -3.61190
C         -1.22110       -5.70190       -2.03690
F         -2.46810       -6.23450       -2.07790
C         -0.95470       -4.61460       -1.19850
F         -1.94710       -4.19580       -0.40390
Ge        -0.83050       -1.79010        1.79970
C         -2.33690       -3.03920        1.92040
C         -3.64450       -2.66000        1.58430
F         -3.91590       -1.39670        1.22760
C         -4.69920       -3.57500        1.66020
F         -5.95330       -3.19340        1.31100
C         -4.46790       -4.87350        2.11380
F         -5.49200       -5.75920        2.19140
C         -3.18840       -5.24520        2.52720
F         -2.97300       -6.48830        3.02510
C         -2.13290       -4.33030        2.45150
F         -0.93250       -4.68730        2.96180
C         -0.32080       -1.97740        3.70300
C         -1.32830       -1.92760        4.69840
F         -2.63170       -1.76310        4.37410
C         -1.01230       -2.09160        6.05050
F         -1.99070       -2.02240        6.98750
C          0.30040       -2.34590        6.43780
F          0.60330       -2.51100        7.74940
C          1.29640       -2.45670        5.47130
F          2.56690       -2.74870        5.84550
C          0.98820       -2.28820        4.11730
F          1.98120       -2.44120        3.23030
C          2.94650       -0.91590       -2.39770
S          2.67860       -0.47170       -4.14840
C          4.31740       -1.03890       -4.69860
H         -4.99580        2.55020        3.77820
H         -4.13810        1.61830        5.08040
H         -4.17270        3.42270        5.12760
H         -3.00970        0.24580        3.31760
H         -3.84220        1.16370        2.04770
H          3.82360       -0.35610       -2.02270
H          3.17640       -1.99110       -2.34240
H          5.11320       -0.46350       -4.18140
H          4.40830       -0.87450       -5.79170
H          4.43730       -2.12180       -4.48670
