84
mol80-B-0
C         -1.75940       -4.57180       -4.90110
S         -2.09610       -3.33830       -3.60650
C         -0.34070       -2.94900       -3.32050
Ge        -0.19260       -1.59460       -1.93310
Ge        -1.07630        0.52990       -2.60860
O         -2.87310        0.44150       -2.45450
C         -3.39960        1.74230       -2.47030
O         -0.60870        0.90660       -4.31030
C         -1.49140        0.24630       -5.17830
Ge        -0.09360        2.16320       -1.12130
O          1.53790        2.69750       -1.68160
C          1.46170        3.07020       -3.03280
O         -1.19730        3.58090       -0.95430
C         -0.46980        4.65670       -0.42170
Ge         2.10900       -1.25710       -1.36160
O          2.84600       -0.05360       -2.48500
C          2.71970       -0.53690       -3.79760
O          3.01720       -2.81260       -1.43310
C          4.38180       -2.52970       -1.25430
Ge         2.07070       -0.38920        0.88110
O          1.74060       -1.69610        2.07940
C          2.82990       -2.57890        2.09780
O          3.60800        0.44570        1.32850
C          3.77640        1.56140        0.49560
Ge         0.17970        1.07670        0.99960
Ge        -1.75660       -0.28790        1.34000
O         -1.88800       -0.73900        3.08170
C         -2.60180        0.26770        3.75200
O         -3.18520        0.67710        0.79940
C         -4.26470       -0.18720        0.56620
Ge        -1.37660       -2.27890        0.04190
O         -0.38110       -3.42190        1.02130
C          0.06240       -4.45850        0.18450
O         -2.94060       -3.05410       -0.41010
C         -3.44550       -3.71950        0.71940
C          0.41080        2.34630        2.45420
S          0.85200        1.44850        3.97570
C          0.96050        2.94820        5.00010
H         -1.13840       -5.39540       -4.49120
H         -2.72140       -4.99140       -5.25990
H         -1.23500       -4.09450       -5.75500
H          0.19630       -3.86080       -2.98750
H          0.12730       -2.56750       -4.25090
H         -4.49290        1.67430       -2.64350
H         -2.97440        2.36750       -3.28730
H         -3.25470        2.22560       -1.48370
H         -2.52470        0.64130       -5.07850
H         -1.47260       -0.85080       -5.02040
H         -1.16420        0.43470       -6.22110
H          2.37050        3.65300       -3.28600
H          0.58340        3.71750       -3.25310
H          1.46070        2.17020       -3.67800
H          0.30900        5.00580       -1.13250
H         -1.16700        5.50240       -0.25290
H         -0.01780        4.40060        0.55860
H          3.25010        0.15820       -4.47980
H          1.65640       -0.56100       -4.11200
H          3.18410       -1.54010       -3.91700
H          4.57130       -2.00310       -0.29350
H          4.78410       -1.93820       -2.10430
H          4.93830       -3.48840       -1.22250
H          3.78990       -2.05120        2.29070
H          2.87490       -3.16390        1.15720
H          2.67980       -3.30200        2.92520
H          3.88890        1.25770       -0.56480
H          2.94660        2.28800        0.61680
H          4.71160        2.07980        0.78960
H         -3.67130        0.25930        3.45420
H         -2.55770        0.06380        4.84130
H         -2.15960        1.27370        3.58540
H         -4.47720       -0.83510        1.44330
H         -4.09120       -0.79040       -0.34720
H         -5.17010        0.42660        0.38430
H          0.55250       -5.23040        0.81200
H         -0.77730       -4.95020       -0.35440
H          0.82110       -4.08670       -0.53300
H         -2.82300       -4.60460        0.96970
H         -4.46590       -4.08520        0.48480
H         -3.52830       -3.04390        1.59860
H          1.22430        3.05280        2.19260
H         -0.53700        2.90560        2.59600
H         -0.02250        3.46290        5.02710
H          1.73290        3.63360        4.59300
H          1.24360        2.66090        6.03330
