156
mol82-A-0
C          0.00240        5.30690        3.57510
S         -0.24900        4.42030        2.00660
C          0.39610        2.83590        2.62930
Ge         0.35250        1.43610        1.25870
Ge         0.16650        2.35860       -0.97300
C         -1.55120        3.20320       -1.22000
C         -2.66750        2.42160       -1.52160
C         -3.91720        3.01380       -1.72010
C         -4.05620        4.39940       -1.60820
C         -2.94310        5.18980       -1.30700
C         -1.69150        4.59480       -1.11830
C          1.47470        3.74120       -1.31080
C          2.34510        4.17230       -0.30260
C          3.27600        5.18290       -0.55880
C          3.34250        5.76800       -1.82550
C          2.46820        5.35160       -2.83260
C          1.53080        4.34750       -2.57370
Ge         0.35670        0.55950       -2.57800
C          1.88250        0.72380       -3.75020
C          1.87530        0.06370       -4.98780
C          2.97050        0.17220       -5.85040
C          4.07800        0.94080       -5.48150
C          4.09100        1.59750       -4.24850
C          2.99600        1.48780       -3.38740
C         -1.14690        0.65330       -3.78870
C         -1.95030       -0.46670       -4.03060
C         -3.03580       -0.38010       -4.90710
C         -3.32030        0.82630       -5.55150
C         -2.50910        1.94220       -5.33090
C         -1.41920        1.85300       -4.46030
Ge         2.46870        0.27250        1.42450
C          3.91540        1.51700        1.12910
C          4.56780        1.58990       -0.10550
C          5.61420        2.49490       -0.30160
C          6.01470        3.33530        0.74010
C          5.36570        3.27130        1.97620
C          4.31900        2.36480        2.17100
C          2.79890       -0.37740        3.21440
C          3.92640       -1.17190        3.46380
C          4.17480       -1.65980        4.74980
C          3.30910       -1.33860        5.79830
C          2.20000       -0.52300        5.56110
C          1.94770       -0.04160        4.27330
Ge         2.48200       -1.61050       -0.09330
C          2.57120       -3.22680        0.95770
C          3.35030       -4.31560        0.54060
C          3.40810       -5.47660        1.31860
C          2.69750       -5.55040        2.52030
C          1.92850       -4.46330        2.94320
C          1.86530       -3.30880        2.15910
C          4.07530       -1.61810       -1.18790
C          3.99070       -1.67650       -2.58400
C          5.15250       -1.69550       -3.36090
C          6.40610       -1.65490       -2.74590
C          6.49780       -1.60940       -1.35260
C          5.33620       -1.60010       -0.57520
Ge         0.45300       -1.56140       -1.41500
Ge        -1.50650       -1.82640       -0.00130
C         -1.60170       -3.58090        0.79690
C         -2.70980       -3.91760        1.58760
C         -2.80740       -5.19070        2.15680
C         -1.80960       -6.14030        1.92070
C         -0.71970       -5.81900        1.10760
C         -0.62140       -4.54490        0.54160
C         -3.08890       -1.88580       -1.12290
C         -4.03890       -0.85760       -1.12910
C         -5.17470       -0.94410       -1.93890
C         -5.37990       -2.07080       -2.73770
C         -4.45030       -3.11260       -2.72240
C         -3.31310       -3.02340       -1.91460
Ge        -1.47880       -0.09540        1.71650
C         -1.33600       -0.71830        3.54860
C         -1.01200       -2.04330        3.86400
C         -0.93460       -2.45830        5.19630
C         -1.19900       -1.55410        6.22690
C         -1.54520       -0.23580        5.92370
C         -1.61900        0.17900        4.59080
C         -3.18270        0.80650        1.80630
C         -4.33280        0.07290        2.13070
C         -5.57280        0.71210        2.22180
C         -5.66580        2.09050        2.01100
C         -4.51690        2.83020        1.71900
C         -3.27820        2.18970        1.62490
C          0.45080       -2.94160       -2.80610
S          1.65870       -4.25920       -2.46130
C          1.26730       -5.21220       -3.96070
H          1.07930        5.30800        3.84370
H         -0.33910        6.35550        3.45610
H         -0.58680        4.82630        4.38370
H          1.44590        2.97200        2.95700
H         -0.20830        2.51260        3.49710
H         -2.55680        1.35670       -1.61620
H         -4.77570        2.39880       -1.95630
H         -5.02430        4.86000       -1.75570
H         -3.04950        6.26340       -1.22190
H         -0.83920        5.21990       -0.88950
H          2.30330        3.73510        0.68100
H          3.94550        5.51230        0.22480
H          4.06670        6.54720       -2.02480
H          2.51470        5.80810       -3.81270
H          0.85860        4.03650       -3.35930
H          1.02320       -0.53220       -5.28670
H          2.96080       -0.34000       -6.80360
H          4.92680        1.02260       -6.14760
H          4.95000        2.18810       -3.95760
H          3.02220        1.99390       -2.44130
H         -1.73780       -1.40540       -3.55060
H         -3.65470       -1.24880       -5.08910
H         -4.16310        0.89400       -6.22690
H         -2.72360        2.87560       -5.83500
H         -0.79930        2.72200       -4.29880
H          4.26770        0.95400       -0.91650
H          6.11080        2.54690       -1.26190
H          6.82280        4.03890        0.58820
H          5.67250        3.92450        2.78260
H          3.82670        2.32360        3.13360
H          4.60330       -1.42620        2.66210
H          5.03860       -2.28550        4.93340
H          3.50180       -1.71450        6.79470
H          1.53750       -0.26160        6.37560
H          1.09600        0.59420        4.10880
H          3.90860       -4.27220       -0.38450
H          4.00540       -6.31740        0.99120
H          2.74350       -6.44810        3.12300
H          1.37950       -4.51540        3.87430
H          1.28160       -2.46820        2.48700
H          3.03190       -1.71360       -3.07360
H          5.08060       -1.74170       -4.43960
H          7.30520       -1.66480       -3.34810
H          7.46850       -1.58380       -0.87460
H          5.42030       -1.56780        0.50080
H         -3.49090       -3.19260        1.76920
H         -3.65740       -5.44160        2.77790
H         -1.88450       -7.12590        2.36130
H          0.05010       -6.55560        0.91690
H          0.22070       -4.31130       -0.08450
H         -3.91170        0.01200       -0.51780
H         -5.89730       -0.13850       -1.94390
H         -6.25960       -2.13810       -3.36430
H         -4.61210       -3.99110       -3.33360
H         -2.61500       -3.84890       -1.89810
H         -0.81550       -2.75940        3.09300
H         -0.67270       -3.48230        5.42880
H         -1.13960       -1.87560        7.25850
H         -1.75980        0.46420        6.72070
H         -1.91030        1.19730        4.37360
H         -4.26980       -0.99240        2.30360
H         -6.46020        0.13960        2.45840
H         -6.62540        2.58580        2.08110
H         -4.58550        3.89910        1.56340
H         -2.40140        2.77060        1.40240
H         -0.56030       -3.38400       -2.87630
H          0.69830       -2.46280       -3.77430
H          0.20000       -5.51650       -3.95150
H          1.90050       -6.12250       -3.98570
H          1.47740       -4.60330       -4.86460
