84
mol80-C-1
C          7.68830        2.46760       -4.28030
S          6.24340        2.43380       -3.17490
C          5.02900        2.62300       -4.51810
Ge         3.20430        2.64730       -3.82200
Ge         2.35960        4.86390       -3.45560
O          2.73400        5.89720       -4.88560
C          2.19920        7.17480       -4.65790
O          3.09250        5.55010       -1.95670
C          4.47780        5.66130       -2.15210
Ge        -0.02290        4.66180       -3.19710
O         -0.71600        4.72640       -4.86070
C         -2.10260        4.91170       -4.75660
O         -0.79180        5.93240       -2.16640
C          0.17800        6.49260       -1.32420
Ge         1.74510        1.42610       -5.28840
O          1.34100        2.37590       -6.76870
C          2.53060        2.85850       -7.33240
O          2.57570       -0.10870       -5.74460
C          1.76270       -0.79980       -6.65540
Ge        -0.32390        0.99990       -4.13850
O         -0.53240       -0.72740       -3.65240
C          0.59820       -1.13910       -2.93480
O         -1.68980        1.46300       -5.22110
C         -1.75420        0.54150       -6.27690
Ge        -0.46170        2.49890       -2.27460
Ge         1.17020        2.00140       -0.58050
O          1.39110        3.39670        0.54080
C          0.18450        3.61300        1.22390
O          0.59030        0.55030        0.32480
C          1.56040        0.18780        1.26980
Ge         3.26620        1.58220       -1.67820
O          3.50980       -0.19890       -1.82670
C          4.66570       -0.42780       -2.58820
O          4.63520        2.33340       -0.77360
C          4.72040        1.73760        0.49260
C         -2.26770        2.44310       -1.54420
S         -2.54590        0.84550       -0.70620
C         -4.25990        1.18960       -0.19420
H          7.63620        1.62620       -5.00220
H          7.72650        3.43190       -4.82860
H          8.61070        2.36310       -3.67310
H          5.21350        3.57210       -5.06250
H          5.12380        1.77190       -5.22370
H          2.45770        7.82230       -5.52030
H          2.63640        7.64260       -3.74880
H          1.09050        7.13980       -4.59000
H          4.94600        4.66260       -2.27830
H          4.92380        6.12320       -1.24790
H          4.71690        6.32060       -3.01490
H         -2.53410        4.91290       -5.77830
H         -2.34230        5.89300       -4.29270
H         -2.58120        4.08040       -4.19730
H          0.88830        7.11460       -1.90770
H         -0.32980        7.16080       -0.59940
H          0.71290        5.71600       -0.73780
H          3.29160        2.05680       -7.46370
H          2.92920        3.69370       -6.72330
H          2.30240        3.26460       -8.33870
H          0.80920       -1.11410       -6.18020
H          1.57330       -0.19750       -7.57090
H          2.29340       -1.72130       -6.97000
H          1.51770       -1.07660       -3.55160
H          0.46480       -2.20200       -2.64850
H          0.70770       -0.55880       -2.00030
H         -0.85040        0.60790       -6.91850
H         -1.90560       -0.49580       -5.90590
H         -2.62760        0.79590       -6.91110
H          0.34450        4.41570        1.97220
H         -0.14800        2.70660        1.77550
H         -0.60460        3.96420        0.52870
H          1.77920        1.02110        1.97250
H          1.16430       -0.65470        1.87240
H          2.48390       -0.17140        0.77030
H          4.88160       -1.51550       -2.57910
H          5.55270        0.09040       -2.16100
H          4.50420       -0.13290       -3.64580
H          3.84160        2.00800        1.11330
H          5.61970        2.13410        1.00630
H          4.84120        0.63430        0.42110
H         -2.38210        3.25810       -0.80330
H         -3.00120        2.61900       -2.35640
H         -4.88300        1.44940       -1.07320
H         -4.68160        0.28490        0.28900
H         -4.27540        2.02650        0.53440
