48
mol81-E-0
C          4.23690        1.82980        0.66320
S          2.83320        0.92460        1.38580
C          3.52470        0.82540        3.07140
Ge         2.31930       -0.11170        4.28990
Ge         3.56500       -1.81040        5.41680
C          5.24170       -1.11600        5.95330
N          6.26580       -0.68990        6.28200
C          3.80970       -3.27410        4.24240
N          3.95670       -4.16860        3.52370
Ge         2.33830       -2.52380        7.34070
C          2.59170       -4.38180        7.59670
N          2.74570       -5.51790        7.75160
C          2.92420       -1.56880        8.86570
N          3.28090       -0.98320        9.79740
Ge         0.46040       -1.17630        3.21380
C          1.05040       -2.11000        1.67670
N          1.41250       -2.68120        0.73820
C         -0.83550        0.11760        2.73670
N         -1.62790        0.90910        2.44700
Ge        -0.51850       -2.73170        4.74190
C          0.18970       -4.45890        4.43060
N          0.62490       -5.51410        4.24190
C         -2.39880       -2.74640        4.52920
N         -3.54840       -2.75380        4.40050
Ge         0.02880       -2.05240        6.96290
Ge        -0.29000        0.30640        7.12400
C         -0.27800        0.82650        8.94350
N         -0.26900        1.14330       10.05620
C         -1.94110        0.76430        6.32050
N         -2.94980        1.04260        5.82710
Ge         1.49720        1.38630        5.96260
C          0.86780        2.99540        5.19120
N          0.48170        3.97950        4.72090
C          2.89670        1.76640        7.17840
N          3.75300        1.99650        7.92150
C         -1.09730       -2.95730        8.26190
S         -0.96610       -4.75790        8.03030
C         -2.11760       -5.16030        9.38060
H          4.36760        2.80130        1.17720
H          5.16640        1.22990        0.74920
H          4.03020        2.01990       -0.40970
H          3.75680        1.83330        3.47350
H          4.47230        0.25140        3.02060
H         -0.76190       -2.67680        9.28190
H         -2.14710       -2.63100        8.10990
H         -3.11590       -4.72120        9.17440
H         -2.21830       -6.26260        9.45390
H         -1.72720       -4.77050       10.34380
