84
mol8-C-0
C         -4.84300        2.72430        0.72480
S         -4.19800        1.05720        0.37230
C         -2.44740        1.57460        0.18710
C         -1.27440        0.51520       -0.15210
C          0.11760        1.11010        0.54800
C          0.31530        2.61620        0.15640
C          1.33370        3.40600        0.53790
C         -0.02560        1.17010        2.10140
C         -0.39720        2.22590        2.85480
C          1.40570        0.17130        0.11530
C          2.26350       -0.34150        1.31660
C          2.76590        0.38910        2.32700
C          2.40270        1.02930       -0.72950
C          3.71180        1.26960       -0.50360
C         -1.59470       -0.99120        0.46500
C         -1.99840       -0.83690        1.96660
C         -2.18050       -1.82080        2.86460
C         -2.84570       -1.64840       -0.20330
C         -4.02190       -1.99380        0.36220
C         -0.27710       -1.95330        0.20800
C          0.35480       -2.39910        1.56410
C          0.90340       -3.59480        1.86420
C         -0.65390       -3.31780       -0.46800
C         -1.52860       -4.22110        0.00680
C          0.84050       -1.14150       -0.72700
C          0.12780       -0.64940       -2.14090
C         -0.42870       -1.86970       -2.93850
C          0.19450       -2.55980       -3.91650
C          1.20990       -0.07560       -3.10540
C          1.00180        0.48500       -4.30860
C         -1.07520        0.42870       -1.79580
C         -0.75290        1.83410       -2.39260
C         -1.62710        2.72240       -2.90990
C         -2.43320        0.07280       -2.47390
C         -2.64660       -0.15480       -3.78080
C          2.01400       -2.20140       -1.06290
S          3.75170       -1.67370       -1.32490
C          4.40410       -3.34670       -1.63330
H         -5.93850        2.66050        0.88560
H         -4.64610        3.40010       -0.13330
H         -4.36970        3.13220        1.64210
H         -2.23690        2.09760        1.12860
H         -2.47760        2.38270       -0.55460
H         -0.47410        3.16790       -0.32630
H          2.17170        3.04330        1.10670
H          1.32940        4.45800        0.27000
H          0.18220        0.30130        2.69160
H         -0.45220        2.12190        3.93400
H         -0.66620        3.18930        2.43700
H          2.63430       -1.35670        1.30340
H          3.40730       -0.08420        3.06390
H          2.56530        1.43930        2.45040
H          2.02660        1.62570       -1.53280
H          4.24890        1.95280       -1.15460
H          4.28920        0.78980        0.27510
H         -2.31020        0.13170        2.33120
H         -1.99590       -2.85830        2.64620
H         -2.53040       -1.57750        3.86290
H         -2.77330       -2.00490       -1.20840
H         -4.76820       -2.51170       -0.23250
H         -4.29760       -1.75220        1.37990
H          0.38480       -1.71810        2.38970
H          1.30650       -3.76560        2.85770
H          0.98260       -4.40830        1.15240
H         -0.08570       -3.69480       -1.30190
H         -1.65540       -5.16950       -0.50590
H         -2.12330       -4.05050        0.88690
H         -1.40750       -2.25180       -2.72600
H          1.20440       -2.34030       -4.24420
H         -0.31200       -3.39420       -4.39150
H          2.24870       -0.25770       -2.90410
H          1.85140        0.77280       -4.92000
H          0.02340        0.69490       -4.69970
H          0.25760        2.19110       -2.41630
H         -2.69720        2.55050       -2.94030
H         -1.26490        3.67090       -3.29430
H         -3.34340        0.15350       -1.91050
H         -1.85550       -0.21670       -4.50520
H         -3.65900       -0.31400       -4.13880
H          2.09480       -2.95450       -0.26910
H          1.77000       -2.79290       -1.95440
H          5.49490       -3.27920       -1.82210
H          3.91360       -3.79040       -2.52440
H          4.23340       -3.99370       -0.74790
