84
mol80-D-1
C         -2.21790        4.68320        4.14060
S         -2.49260        3.07230        3.34050
C         -0.81080        2.96520        2.65240
Ge        -0.61730        1.30760        1.65130
Ge        -0.66710       -0.55970        3.15170
O         -2.36430       -0.99500        3.57620
C         -2.97190        0.12330        4.16760
O          0.26740       -0.14750        4.63700
C          0.25190       -1.26590        5.48540
Ge         0.39280       -2.37430        1.98740
O          2.16950       -2.18300        2.22130
C          2.82340       -3.18170        1.48400
O         -0.09920       -3.97680        2.65870
C         -1.45230       -4.19730        2.36560
Ge        -2.37520        1.01030        0.04260
O         -2.00260        2.02800       -1.40160
C         -2.76420        1.57880       -2.49150
O         -3.95670        1.49940        0.76100
C         -4.10720        2.88720        0.61820
Ge        -2.42120       -1.34750       -0.47860
O         -3.03860       -1.61420       -2.15260
C         -3.59370       -2.90220       -2.22570
O         -3.40210       -2.29210        0.70820
C         -4.59780       -1.60670        0.97250
Ge        -0.15480       -2.11430       -0.33780
Ge         1.26640       -0.40470       -1.22470
O          0.40210        0.35800       -2.61300
C          1.11480        0.09250       -3.79150
O          2.82100       -1.16620       -1.74670
C          3.88100       -0.29810       -1.44550
Ge         1.51220        1.20970        0.54830
O          2.04190        2.84280       -0.01430
C          1.43970        3.12120       -1.24880
O          2.73240        0.57290        1.71190
C          2.93740        1.53760        2.70980
C          0.09940       -3.78920       -1.29510
S         -0.11820       -3.51010       -3.08040
C          0.19320       -5.24380       -3.53650
H         -1.95250        5.44680        3.38020
H         -3.15030        4.99580        4.65360
H         -1.40480        4.60170        4.89170
H         -0.06150        2.98390        3.46950
H         -0.62800        3.82080        1.97100
H         -2.40580        0.47840        5.05710
H         -3.98380       -0.16970        4.51380
H         -3.10050        0.94060        3.42780
H          0.77550       -2.12960        5.02110
H          0.79790       -1.00860        6.41580
H         -0.78580       -1.54290        5.77420
H          2.48550       -4.19930        1.78000
H          3.91040       -3.11830        1.69500
H          2.69030       -3.02040        0.39410
H         -2.09750       -3.42750        2.83530
H         -1.74800       -5.17760        2.79120
H         -1.62400       -4.24970        1.27070
H         -2.30610        0.66890       -2.92810
H         -2.74690        2.36230       -3.27600
H         -3.83080        1.40140       -2.22670
H         -4.20900        3.17070       -0.45090
H         -5.04060        3.19370        1.13280
H         -3.27150        3.44070        1.09350
H         -2.88540       -3.68310       -1.87240
H         -4.54540       -2.95360       -1.65560
H         -3.82820       -3.12410       -3.28660
H         -5.30670       -2.31300        1.45040
H         -5.08780       -1.22160        0.05020
H         -4.41480       -0.78800        1.69580
H          2.11150        0.58330       -3.77340
H          0.55000        0.51730       -4.64620
H          1.21580       -0.99980       -3.96890
H          3.71100        0.72520       -1.84660
H          4.80150       -0.69010       -1.92380
H          4.06350       -0.27250       -0.35160
H          0.33770        3.00060       -1.20600
H          1.88360        2.49540       -2.04940
H          1.64350        4.18020       -1.50710
H          2.00820        1.71990        3.28930
H          3.69780        1.15220        3.41910
H          3.33100        2.48580        2.28240
H          1.12340       -4.16650       -1.09790
H         -0.64220       -4.52940       -0.93240
H          1.20880       -5.54830       -3.20850
H         -0.56700       -5.90320       -3.06840
H          0.12600       -5.34510       -4.63910
