48
mol81-C-1
C          1.60260        0.13300       -4.50760
S          1.08870       -0.50230       -2.88080
C          1.62520       -2.22490       -3.15920
Ge         1.24540       -3.31220       -1.58910
Ge        -1.10820       -3.49340       -1.20230
C         -1.75110       -1.84030       -0.54260
N         -2.14180       -0.82950       -0.13760
C         -2.01680       -3.95680       -2.79650
N         -2.57200       -4.24210       -3.77070
Ge        -1.47790       -5.20220        0.42610
C         -2.91900       -4.71500        1.55170
N         -3.79890       -4.41570        2.24070
C         -1.84920       -6.83980       -0.44690
N         -2.07330       -7.84090       -0.98150
Ge         2.22840       -2.27700        0.32420
C          1.85310       -0.42230        0.30550
N          1.62170        0.71120        0.29350
C          4.09800       -2.56810        0.28930
N          5.24050       -2.74900        0.26750
Ge         1.30130       -3.26790        2.29170
C         -0.15140       -2.22250        2.90640
N         -1.04110       -1.58430        3.28010
C          2.63530       -3.38540        3.62900
N          3.45170       -3.45840        4.44540
Ge         0.50680       -5.44740        1.72520
Ge         2.15040       -6.53400        0.37740
C          3.84790       -6.32680        1.18820
N          4.88470       -6.19740        1.68470
C          1.72210       -8.36990        0.21370
N          1.45820       -9.49190        0.11360
Ge         2.16780       -5.50760       -1.78160
C          3.95400       -5.39830       -2.39770
N          5.04600       -5.32970       -2.77350
C          1.11240       -6.52000       -2.98260
N          0.46480       -7.13710       -3.71630
C          0.11990       -6.49010        3.31800
S          1.66390       -6.80340        4.22960
C          0.85670       -7.75050        5.55740
H          1.07990       -0.41430       -5.31590
H          2.70050        0.02600       -4.62900
H          1.33740        1.20780       -4.57550
H          1.14180       -2.67970       -4.04850
H          2.72230       -2.22780       -3.32140
H         -0.59110       -5.92160        3.95270
H         -0.34020       -7.45190        3.00950
H          1.62530       -8.07670        6.28760
H          0.11130       -7.11550        6.07990
H          0.35720       -8.64780        5.13650
