48
mol81-D-2
C          1.98370       -7.80520        5.80670
S          2.44420       -7.08510        4.20020
C          0.78480       -6.41870        3.86080
Ge         0.78980       -5.50730        2.14520
Ge         2.49770       -3.83830        2.05900
C          4.17900       -4.68750        1.87650
N          5.20570       -5.20840        1.76290
C          2.46370       -2.78740        3.63250
N          2.44110       -2.14450        4.59410
Ge         2.09370       -2.44360        0.16000
C          3.73820       -1.93160       -0.62390
N          4.74370       -1.62030       -1.10400
C          1.11420       -0.91400        0.69160
N          0.51290        0.01930        1.01660
Ge        -1.31950       -4.47050        1.72950
C         -2.71320       -5.68300        2.13980
N         -3.56400       -6.42590        2.39000
C         -1.46470       -2.91820        2.80220
N         -1.55040       -1.96850        3.45740
Ge        -1.42960       -3.85580       -0.57840
C         -2.35690       -5.18600       -1.55360
N         -2.92150       -6.00100       -2.15000
C         -2.32670       -2.19460       -0.71160
N         -2.87410       -1.17850       -0.79130
Ge         0.80270       -3.68120       -1.42030
Ge         1.72790       -5.87530       -1.58650
C          3.60760       -5.74020       -1.75930
N          4.75670       -5.65550       -1.86290
C          0.99340       -6.75950       -3.08970
N          0.54240       -7.29940       -4.00820
Ge         1.19070       -7.08440        0.40210
C         -0.37680       -8.10690        0.12080
N         -1.33670       -8.72920       -0.05140
C          2.63490       -8.20970        0.88050
N          3.51890       -8.89600        1.17350
C          0.88360       -2.83910       -3.17180
S          0.12250       -1.18230       -3.10070
C          0.39900       -0.77530       -4.85490
H          1.63590       -7.00800        6.49650
H          2.87210       -8.30050        6.24920
H          1.18190       -8.56050        5.67040
H          0.50000       -5.69080        4.64860
H          0.04130       -7.24190        3.82540
H          1.95060       -2.72630       -3.45250
H          0.39700       -3.50050       -3.91840
H          1.48730       -0.68700       -5.05390
H         -0.03670       -1.55970       -5.50770
H         -0.08860        0.19430       -5.08310
