60
mol9-B-1
C          3.74710       -0.22180       -3.07870
S          3.19110        0.39720       -1.45940
C          1.40260        0.19860       -1.81490
C          0.36920        0.61160       -0.67900
C          0.91190        0.00060        0.72080
C          2.17790        0.66240        1.14170
C          3.21960        1.15620        1.50210
C          1.38110       -1.40790        0.58160
C          1.78600       -2.54110        0.48200
C         -0.22670        0.13450        1.84560
C          0.35660        0.45620        3.17960
C          0.82320        0.68960        4.26860
C         -0.86060       -1.18010        2.14240
C         -1.34130       -2.25320        2.41880
C          0.23020        2.21720       -0.50560
C         -0.47080        2.83940       -1.66200
C         -1.01790        3.38830       -2.58930
C          1.55320        2.89260       -0.57980
C          2.61690        3.45760       -0.66110
C         -0.54580        2.54700        0.87430
C         -1.44920        3.72030        0.72980
C         -2.15070        4.69670        0.61360
C          0.38400        3.05340        1.91800
C          1.13010        3.51120        2.75020
C         -1.33100        1.22400        1.37580
C         -2.14580        0.60330        0.11940
C         -3.02840        1.61630       -0.52170
C         -3.77270        2.40080       -1.06070
C         -3.14610       -0.40540        0.56010
C         -3.97850       -1.20920        0.90390
C         -1.10160       -0.00340       -0.95590
C         -1.55680        0.22610       -2.35370
C         -1.95310        0.38320       -3.48370
C         -1.08250       -1.48970       -0.92230
C         -1.10230       -2.69730       -0.93030
C         -2.26280        1.53220        2.62690
S         -3.84860        2.40180        2.32060
C         -4.36160        2.42170        4.06730
H          3.40520       -1.26730       -3.22600
H          3.34990        0.42200       -3.89080
H          4.85540       -0.19890       -3.11290
H          1.26010       -0.87090       -2.07410
H          1.18850        0.77690       -2.73770
H          4.13080        1.59130        1.81780
H          2.13880       -3.53450        0.39380
H          1.23250        0.89600        5.22200
H         -1.76340       -3.19320        2.65830
H         -1.49900        3.86660       -3.40090
H          3.54990        3.95140       -0.73130
H         -2.76700        5.55030        0.51100
H          1.78490        3.90960        3.47930
H         -4.42220        3.08990       -1.53240
H         -4.70670       -1.91440        1.20660
H         -2.29910        0.52320       -4.47360
H         -1.11860       -3.75500       -0.93450
H         -1.69900        2.13600        3.36800
H         -2.52910        0.58140        3.13340
H         -3.62230        2.98250        4.67610
H         -4.45490        1.38420        4.45000
H         -5.34730        2.92380        4.14850
