60
mol9-B-2
C          3.00570       -1.05840       -3.49150
S          1.63990       -1.35150       -2.32390
C          1.56450        0.38030       -1.72410
C          0.48010        0.73610       -0.61680
C          1.00490        0.13220        0.79290
C          2.22820        0.84180        1.25990
C          3.23640        1.37470        1.65780
C          1.53760       -1.25360        0.65380
C          1.99310       -2.36750        0.55510
C         -0.17240        0.20480        1.88300
C          0.35550        0.53520        3.23780
C          0.77810        0.77530        4.34310
C         -0.75870       -1.13870        2.14620
C         -1.20160       -2.23420        2.39630
C          0.26770        2.33230       -0.43110
C         -0.42320        2.93780       -1.60230
C         -0.96440        3.47400       -2.54040
C          1.56250        3.06370       -0.45690
C          2.60330        3.67390       -0.49910
C         -0.56370        2.61300        0.92730
C         -1.51120        3.74870        0.76690
C         -2.24960        4.69600        0.63890
C          0.31130        3.14590        2.00470
C          1.01130        3.62490        2.86450
C         -1.30700        1.25220        1.39030
C         -2.05570        0.61260        0.10270
C         -2.96030        1.59490       -0.55510
C         -3.72050        2.35360       -1.10880
C         -3.02530       -0.44250        0.50140
C         -3.83300       -1.28460        0.81070
C         -0.95410        0.06300       -0.94580
C         -1.37550        0.28940       -2.35460
C         -1.74320        0.44290       -3.49480
C         -0.87300       -1.42150       -0.92700
C         -0.84120       -2.62870       -0.94810
C         -2.28900        1.50630        2.61480
S         -3.90020        2.31180        2.26830
C         -4.46700        2.28960        3.99820
H          2.70520       -0.30570       -4.24970
H          3.90530       -0.70500       -2.94620
H          3.24990       -2.00920       -4.00760
H          1.39480        1.00750       -2.62360
H          2.57610        0.63810       -1.34730
H          4.11810        1.84410        2.00630
H          2.39030       -3.34400        0.46760
H          1.14870        0.98760        5.31100
H         -1.59060       -3.19390        2.61270
H         -1.44010        3.94110       -3.36160
H          3.51620        4.20730       -0.53500
H         -2.89810        5.52410        0.52610
H          1.62590        4.04200        3.61780
H         -4.38380        3.02010       -1.59340
H         -4.53960       -2.02340        1.08330
H         -2.06420        0.57980       -4.49340
H         -0.81250       -3.68600       -0.96380
H         -1.77440        2.12460        3.37940
H         -2.53020        0.53930        3.10290
H         -3.77120        2.87400        4.63560
H         -4.52790        1.24470        4.36700
H         -5.47510        2.74880        4.05390
