60
mol9-A-2
C         -2.60260       -4.36420        0.57050
S         -2.41890       -2.64070        1.12750
C         -1.14210       -2.20400       -0.11490
C         -0.57110       -0.72030       -0.09970
C         -0.24310       -0.33270        1.44590
C          0.44060       -1.44480        2.16810
C          0.97530       -2.34300        2.77260
C         -1.48870       -0.22330        2.25290
C         -2.47500       -0.15470        2.94670
C          0.61580        1.02980        1.50060
C          0.23100        1.89490        2.64830
C         -0.05650        2.59260        3.59060
C          2.03870        0.73730        1.82750
C          3.17950        0.49270        2.14190
C         -1.62500        0.36020       -0.67510
C         -3.00520        0.09200       -0.18870
C         -4.13380       -0.12660        0.17980
C         -1.81110        0.23440       -2.14710
C         -2.00590        0.15900       -3.33720
C         -1.11860        1.84180       -0.29420
C         -1.93200        2.42890        0.80510
C         -2.62140        2.92720        1.66260
C         -1.40530        2.81970       -1.38380
C         -1.65710        3.62220       -2.25020
C          0.46120        1.80610        0.09250
C          1.23960        0.95630       -1.04280
C          0.98720        1.52670       -2.39330
C          0.82730        1.97890       -3.50170
C          2.71680        1.10210       -0.96150
C          3.91970        1.20770       -0.93490
C          0.79800       -0.59680       -0.95230
C          1.86690       -1.44350       -0.35790
C          2.75050       -2.14040        0.08060
C          0.69290       -1.20680       -2.30410
C          0.64920       -1.70440       -3.40370
C          0.97660        3.30870        0.15940
S          2.60030        3.62030        0.95360
C          2.56210        5.42220        0.69620
H         -3.36310       -4.86840        1.20120
H         -1.63790       -4.90340        0.67190
H         -2.93910       -4.39030       -0.48680
H         -1.57260       -2.42690       -1.11310
H         -0.30830       -2.92110        0.03480
H          1.44520       -3.13010        3.30060
H         -3.34010       -0.09270        3.55250
H         -0.30990        3.20470        4.41540
H          4.17880        0.27760        2.41430
H         -5.12210       -0.31870        0.50470
H         -2.17350        0.09280       -4.37960
H         -3.22410        3.36150        2.41580
H         -1.87620        4.32440       -3.01050
H          0.68430        2.37460       -4.47230
H          4.97320        1.30030       -0.90930
H          3.52420       -2.74950        0.46730
H          0.60850       -2.13960       -4.36710
H          1.03210        3.72900       -0.86600
H          0.23890        3.92660        0.71250
H          3.48880        5.86640        1.11340
H          2.51100        5.65220       -0.38840
H          1.68700        5.86410        1.21620
