180
mol32-2
C     0.81205   -0.12218    6.26408
S     1.45857   -0.54231    4.61605
C     0.04521    0.15975    3.71624
Si     0.16883    0.00720    1.83234
Si    -0.13544    2.11820    1.04567
C     1.23473    3.20573    1.76771
C     1.01645    3.87895    3.13469
C     1.06390    5.39901    2.93885
C     2.07973    3.46877    4.16086
C    -1.89264    2.60342    1.61145
C    -2.25330    4.09413    1.81122
C    -3.63200    4.20950    2.47724
C    -2.24971    4.88972    0.50939
Si     0.06841    1.99523   -1.23009
C    -1.40012    2.75327   -2.16215
C    -1.14385    4.04851   -2.96518
C    -0.40898    3.77316   -4.28802
C    -2.47700    4.74002   -3.28797
C     1.70438    2.59721   -1.90778
C     2.62030    3.62088   -1.27705
C     3.85430    3.84285   -2.15918
C     1.91746    4.96123   -1.04495
Si     2.06184   -0.98545    0.98995
C     3.59383    0.12317    1.10944
C     4.01825    0.66292    2.48465
C     4.98744    1.84059    2.29995
C     4.70038   -0.40370    3.34410
C     2.29221   -2.68374    1.79477
C     3.70247   -3.31579    1.68310
C     3.97819   -4.21949    2.89447
C     3.86806   -4.13191    0.40233
Si     1.77505   -1.28851   -1.23955
C     1.51159   -3.08415   -1.69225
C     1.85809   -3.68841   -3.03613
C     2.63927   -4.99668   -2.84963
C     0.59458   -3.98067   -3.84833
C     3.21421   -0.50057   -2.19702
C     4.64806   -0.92982   -1.83013
C     5.20215   -1.96172   -2.81661
C     5.55946    0.29946   -1.82000
Si    -0.07153   -0.16763   -1.87559
Si    -1.97299   -1.11871   -1.03495
C    -2.03696   -2.85691   -1.82775
C    -3.25560   -3.82318   -1.78792
C    -4.00976   -3.86230   -0.46242
C    -4.22442   -3.65446   -2.96878
C    -3.37480    0.06586   -1.41065
C    -4.41830   -0.08591   -2.48798
C    -4.52054    1.19363   -3.32883
C    -5.78543   -0.37659   -1.85650
Si    -1.65865   -1.20212    1.22869
C    -3.09044   -0.34736    2.13504
C    -4.52737   -0.72137    1.77365
C    -5.44794    0.45923    2.08696
C    -4.99132   -1.97553    2.51594
C    -1.38359   -2.96519    1.77853
C    -1.00414   -3.37859    3.18483
C    -2.17723   -3.25505    4.15898
C    -0.48757   -4.82426    3.19856
C     0.04004   -0.13627   -3.76000
S    -1.55136   -0.47501   -4.57036
C    -0.89872   -0.29554   -6.25883
H    -0.15820   -0.63369    6.43458
H     0.67977    0.97619    6.35398
H     1.53631   -0.46044    7.03290
H    -0.86480   -0.36357    4.05890
H    -0.06588    1.22757    3.98132
H     0.00000    0.00000    0.00000
H     2.19903    2.68053    1.70605
H     0.03866    3.58731    3.56358
H     2.09017    5.72425    2.66157
H     0.37843    5.71949    2.12687
H     0.76378    5.91498    3.87564
H     1.98677    2.39424    4.40432
H     3.10192    3.67381    3.77794
H     1.93633    4.03379    5.10665
H    -2.61494    2.14626    0.91157
H    -2.02279    2.10323    2.59259
H    -1.54270    4.57079    2.49988
H    -3.63182    3.68741    3.45806
H    -3.88463    5.27637    2.65806
H    -4.41873    3.76043    1.83386
H    -1.28644    4.76600   -0.01852
H    -3.08807    4.56045   -0.13586
H    -2.38169    5.97139    0.72505
H    -1.77514    1.98666   -2.85987
H    -2.20438    2.90591   -1.42155
H    -0.54556    4.74951   -2.35353
H    -0.28550    4.71690   -4.86088
H     0.60182    3.36753   -4.11814
H    -0.98013    3.05262   -4.91246
H    -3.01306    5.01929   -2.36082
H    -3.13042    4.07043   -3.88799
H    -2.29832    5.67412   -3.86238
H     0.00000    0.00000    0.00000
H     2.03558    2.10389   -2.81542
H     2.97683    3.22563   -0.31011
H     3.56212    4.27251   -3.14194
H     4.56407    4.53632   -1.65945
H     4.37884    2.88443   -2.33966
H     1.00371    4.82819   -0.43634
H     1.64673    5.43520   -2.01212
H     2.59140    5.65001   -0.49235
H     3.39628    0.96729    0.41886
H     0.00000    0.00000    0.00000
H     3.12410    1.02882    3.01489
H     5.27169    2.26390    3.28698
H     4.52042    2.65265    1.70549
H     5.90823    1.50842    1.77319
H     5.01402    0.03304    4.31628
H     4.00277   -1.22849    3.57054
H     5.59973   -0.80676    2.83128
H     2.03575   -2.55660    2.86051
H     1.53111   -3.36232    1.36601
H     4.47602   -2.52465    1.66662
H     4.99678   -4.65797    2.82681
H     3.92430   -3.63568    3.83737
H     3.23340   -5.04321    2.94307
H     3.07769   -4.90842    0.31856
H     4.86169   -4.62832    0.38201
H     3.82311   -3.45997   -0.46871
H     0.00000    0.00000    0.00000
H     1.03231   -3.71352   -0.95132
H     2.47524   -2.97489   -3.61998
H     2.90145   -5.42998   -3.83844
H     3.58460   -4.83335   -2.30134
H     2.03195   -5.73796   -2.28622
H     0.08077   -3.04066   -4.11443
H    -0.09886   -4.63826   -3.28137
H     0.85837   -4.48504   -4.80244
H     0.00000    0.00000    0.00000
H     3.03810   -0.47738   -3.29252
H     4.67284   -1.36975   -0.81421
H     6.25226   -2.21600   -2.55804
H     4.61703   -2.89265   -2.76547
H     5.17383   -1.57234   -3.85703
H     5.58964    0.77268   -2.82513
H     5.20108    1.04390   -1.08130
H     6.59219    0.00991   -1.53023
H    -1.75264   -2.71690   -2.88247
H    -1.19483   -3.39619   -1.35935
H    -2.82377   -4.84185   -1.91919
H    -3.35425   -4.21419    0.35376
H    -4.86079   -4.57351   -0.52736
H    -4.41118   -2.86841   -0.22389
H    -4.75153   -4.61492   -3.15474
H    -3.68944   -3.38036   -3.90241
H    -5.00460   -2.90498   -2.75258
H    -3.47009    0.91357   -0.74700
H     0.00000    0.00000    0.00000
H    -4.13358   -0.91215   -3.16441
H    -5.37262    1.12163   -4.03809
H    -4.67336    2.08388   -2.68067
H    -3.61088    1.34206   -3.93870
H    -6.55344   -0.50704   -2.64839
H    -5.76044   -1.30841   -1.26129
H    -6.09573    0.45806   -1.19081
H    -2.94770   -0.23598    3.22640
H     0.00000    0.00000    0.00000
H    -4.59404   -0.90155    0.69333
H    -5.41901    0.70571    3.17037
H    -6.49350    0.21780    1.79926
H    -5.12952    1.35138    1.50665
H    -4.34789   -2.83544    2.24746
H    -6.03316   -2.22750    2.22462
H    -4.95425   -1.81986    3.61529
H    -1.27543   -3.69305    0.98431
H     0.00000    0.00000    0.00000
H    -0.18780   -2.72228    3.53920
H    -2.52759   -2.21002    4.22365
H    -1.85564   -3.55520    5.17914
H    -3.01683   -3.91225    3.84953
H     0.37213   -4.94666    2.50997
H    -0.14600   -5.09935    4.21933
H    -1.28899   -5.52855    2.88660
H     0.78498   -0.88352   -4.09226
H     0.40326    0.86001   -4.07772
H    -0.49752    0.72887   -6.40579
H    -0.09846   -1.04318   -6.43953
H    -1.72061   -0.46656   -6.98363
