36
mol48-4
C     4.53056    0.45883    2.40584
S     4.27234   -1.06222    1.69300
C     2.59060   -1.34367    1.39430
Si     2.39611   -0.71238    0.10522
Si    60.35508   -5.06511   16.44939
Br     1.00435    1.87400   -3.38991
Br     4.13258   -1.57480   -2.47265
Si   -11.52114   46.60531   14.25962
Br     0.15080    2.07151   -2.77190
Br     3.24304    0.05571   -3.66076
Si    -1.49565   -8.43095   10.18081
Br     4.13257   -1.57480   -2.47265
Br     1.44354   -5.01905   -4.57502
Si    -2.34020   -1.49016    3.37663
Br     0.18655    2.02024   -2.73787
Br    -1.16306    0.22296   -3.82229
Si    -2.40411    1.07261   -0.74913
Si   -54.57646   -0.13399  -16.31864
Br     1.14298   -4.55588   -5.02874
Br    -1.23494    0.31892   -3.90408
Si     3.81465  -16.53192   -7.66095
Br     1.57407   -5.07612   -4.65478
Br    -1.16301    0.22294   -3.82233
C    -3.20446    1.32148    0.10862
S    -4.43733    0.09599    0.16317
C    -4.68471   -0.65619    1.78354
H     5.12844    0.38544    3.46095
H     5.29115    1.13736    1.88270
H    -0.49524   -3.01187   -0.29245
H     2.23909   -2.39409    1.30361
H     1.96152   -0.99719    2.30356
H    -3.50854    2.32520   -0.29191
H    -2.97056    1.59844    1.21118
H    -4.74857    0.23293    2.50697
H    -5.72015   -1.10110    1.87159
H    -3.92190   -1.28835    2.16540
