84
mol8-0
C     4.99021    1.58275    2.02584
S     3.33370    2.12069    1.49495
C     2.73159    0.42112    1.08504
C     1.24035    0.21334    0.54827
C     0.79014    1.47623   -0.43368
C     0.53697    2.66668    0.50410
C     0.29523    3.95663    0.23384
C     1.97231    1.97188   -1.32328
C     1.91766    2.89736   -2.29002
C    -0.54802    1.06412   -1.28446
C    -1.50725    2.29830   -1.47810
C    -1.56451    3.14816   -2.52387
C    -0.15209    0.65592   -2.73286
C    -0.98915    0.51868   -3.78025
C     0.16409    0.08099    1.81232
C     0.27893    1.17925    2.93687
C     1.31424    1.48874    3.73245
C     0.31012   -1.25564    2.60175
C     1.23661   -1.61182    3.51094
C    -1.34947    0.14609    1.15227
C    -2.39545   -0.71965    1.91463
C    -2.53091   -0.75041    3.25270
C    -1.90964    1.56906    1.31063
C    -3.00481    2.04829    1.93025
C    -1.26417   -0.19961   -0.47238
C    -0.34749   -1.56309   -0.71445
C    -0.48486   -2.05969   -2.20371
C    -1.48687   -2.80898   -2.70859
C    -0.90807   -2.78325    0.07193
C    -0.51009   -4.05660   -0.11975
C     1.21745   -1.22424   -0.28600
C     1.87813   -2.35957    0.58382
C     3.19702   -2.61140    0.71340
C     2.15003   -1.19502   -1.53106
C     2.52044   -2.28848   -2.22673
C    -2.71226   -0.49620   -1.07091
S    -4.08969    0.66001   -0.71453
C    -5.33397   -0.25868   -1.67583
H     5.57606    2.47151    2.33724
H     4.90817    0.88750    2.88699
H     5.51639    1.08170    1.18697
H     3.44890    0.07791    0.32176
H     2.92612   -0.23259    1.94683
H     0.00000    0.00000    0.00000
H     0.14104    4.64207    1.05909
H     0.23477    4.35137   -0.76781
H     2.98016    1.63981   -1.13742
H     2.82545    3.18464   -2.81173
H     1.01263    3.38577   -2.58351
H    -2.20617    2.60214   -0.72984
H    -2.26917    3.97468   -2.50642
H    -0.95443    3.05817   -3.41175
H     0.87847    0.46803   -2.98311
H    -0.59555    0.22332   -4.74771
H    -2.04592    0.74655   -3.71990
H    -0.60882    1.69554    3.27301
H     2.29113    1.04949    3.67307
H     1.18369    2.23665    4.50930
H    -0.40351   -2.04548    2.44047
H     2.07433   -1.01616    3.81332
H     1.17553   -2.59515    3.96778
H    -3.18784   -1.22343    1.38210
H    -1.86908   -0.20293    3.91106
H    -3.33524   -1.32453    3.70138
H     0.00000    0.00000    0.00000
H    -3.73399    1.42166    2.42719
H    -3.18947    3.11606    1.90745
H     0.23140   -1.79537   -2.96120
H    -1.48368   -3.07678   -3.76075
H    -2.31204   -3.16793   -2.10515
H    -1.76725   -2.70576    0.70083
H    -0.99986   -4.86662    0.41150
H     0.29887   -4.30057   -0.79929
H     1.29067   -3.03204    1.18174
H     3.53059   -3.41656    1.36096
H     3.95971   -2.05939    0.17883
H     2.66563   -0.31326   -1.83529
H     3.22420   -2.19920   -3.04832
H     2.12587   -3.27048   -1.99077
H    -2.66980   -0.57614   -2.16169
H    -3.06450   -1.49098   -0.74753
H    -6.30635    0.27032   -1.60662
H    -5.03019   -0.31212   -2.74197
H    -5.45335   -1.28337   -1.26660
