144
mol31-4
C     3.41270    2.79417   -2.82960
S     1.94943    2.85018   -3.45512
C     0.75875    2.22581   -2.94361
Si     0.56597    1.12935   -1.42971
Si     1.86648   -0.87569   -1.65068
C     3.82538   -0.73966   -1.68897
C     4.48772   -1.25768   -0.41933
C     4.59436   -1.39214   -2.85289
C     1.41446   -1.46252   -3.43961
C     2.00762   -2.82603   -3.83868
C     1.75333   -0.41939   -4.52501
Si     1.08145   -2.26865    0.11790
C     2.40083   -3.18276    1.23233
C     1.94415   -4.52943    1.84895
C     2.98828   -2.32746    2.33679
C     0.32103   -3.83244   -0.75698
C     1.26387   -5.00619   -1.11109
C    -0.66935   -3.58443   -1.87086
Si     1.18336    2.41963    0.48169
C     0.58712    4.25954    0.30277
C     0.54047    5.04307    1.62340
C    -0.66675    4.51618   -0.51851
C     3.03586    2.75576    0.99177
C     3.68037    4.08524    0.55338
C     3.98220    1.60848    0.69190
Si     0.36020    1.17645    2.27429
C    -1.03251    2.22124    3.03054
C    -1.83371    1.49481    4.11047
C    -1.91476    2.74438    1.98226
C     1.49755    1.08269    3.87644
C     2.92354    0.61255    3.63309
C     1.55125    2.37332    4.71885
Si    -0.43244   -0.94114    1.46304
Si    -2.45125   -0.72727    0.25229
C    -4.00794   -0.32220    1.40317
C    -5.29406   -1.10674    1.07624
C    -4.40755    1.15079    1.58257
C    -2.86771   -2.54255   -0.23730
C    -3.86400   -2.83290   -1.37009
C    -2.95465   -3.55364    0.91008
Si    -1.84085    0.64747   -1.60855
C    -3.03055    2.20427   -1.70580
C    -4.53016    1.86185   -1.58089
C    -2.87542    3.11696   -2.93570
C    -2.24309   -0.26395   -3.27873
C    -1.54857    0.30531   -4.47120
C    -3.72956   -0.37598   -3.63874
C    -0.85396   -1.73840    3.14065
S    -0.71305   -3.54121    3.23513
C    -1.22562   -3.65104    4.97825
H     3.33239    2.39509   -1.81735
H     4.06116    2.14639   -3.45379
H     3.83874    3.81701   -2.80168
H    -0.11582    2.34829   -3.54599
H     0.00000    0.00000    0.00000
H     4.03794    0.33213   -1.77227
H     0.00000    0.00000    0.00000
H     5.43371   -0.70891   -0.22232
H     4.74129   -2.33459   -0.49238
H     5.67992   -1.17562   -2.74518
H     4.48734   -2.49562   -2.83285
H     4.32810   -0.99625   -3.84244
H     0.32115   -1.57296   -3.44936
H     2.27041   -3.42434   -2.95314
H     1.28207   -3.38953   -4.46188
H     2.91495   -2.72873   -4.46742
H     0.94972    0.31356   -4.64153
H     2.65267    0.17012   -4.28706
H     1.88026   -0.88988   -5.52366
H     3.23109   -3.44397    0.55649
H     1.95411   -4.52075    2.96049
H     0.92357   -4.81815    1.54966
H     2.63149   -5.34468    1.53563
H     2.17098   -1.89799    2.94875
H     3.64302   -1.56368    1.90161
H     3.64624   -2.92917    3.00072
H     0.00000    0.00000    0.00000
H     1.06395   -5.86234   -0.43716
H     1.10164   -5.39369   -2.13915
H     2.33049   -4.72330   -1.04092
H    -0.26230   -3.77832   -2.87570
H    -0.97179   -2.53819   -1.81955
H    -1.52713   -4.27375   -1.74452
H     1.37465    4.72662   -0.31725
H    -0.44717    4.96570    2.11531
H     1.31318    4.69459    2.33351
H     0.72070    6.12068    1.42226
H    -0.61637    5.52533   -0.98199
H    -1.58816    4.49931    0.08952
H    -0.71437    3.78185   -1.32567
H     2.97976    2.84149    2.09088
H     3.23208    4.94752    1.08342
H     3.59191    4.25064   -0.53298
H     4.76041    4.09606    0.81629
H     3.37998    0.70222    0.54815
H     4.61929    1.80179   -0.19180
H     4.68821    1.45549    1.53498
H    -0.58432    3.11916    3.48806
H    -2.39638    0.65463    3.68068
H    -2.55572    2.19499    4.58252
H    -1.17671    1.09653    4.90769
H    -2.66485    3.49557    2.21007
H     0.00000    0.00000    0.00000
H    -1.77580    2.39855    0.97446
H     1.03215    0.32903    4.53763
H     3.67682    1.42072    3.74939
H     3.19730   -0.19970    4.34011
H     2.98470    0.25111    2.61754
H     0.60137    2.55045    5.25946
H     1.79466    3.25016    4.08879
H     2.32554    2.29144    5.51264
H    -3.71341   -0.69467    2.40114
H    -5.71900   -0.79003    0.10347
H    -6.06351   -0.90593    1.85350
H    -5.15206   -2.19890    1.09291
H    -3.88357    1.78895    0.87763
H    -5.48807    1.33711    1.39702
H    -4.22349    1.49157    2.61940
H     0.00000    0.00000    0.00000
H    -4.16574   -3.90103   -1.37892
H    -4.78038   -2.22746   -1.29486
H    -3.38380   -2.67135   -2.34539
H    -2.04037   -4.17758    0.89937
H    -3.06660   -3.04478    1.88540
H    -3.82252   -4.23833    0.80911
H    -2.79107    2.82839   -0.83893
H    -5.04571    1.80976   -2.56065
H    -5.05188    2.65577   -1.00412
H    -4.68973    0.89749   -1.07466
H    -3.48241    4.03597   -2.78576
H    -3.24826    2.63372   -3.85709
H    -1.84877    3.45783   -3.10678
H    -1.87662   -1.28767   -3.19009
H    -1.13499   -0.37781   -5.20645
H     0.00000    0.00000    0.00000
H    -1.71503    1.32251   -4.79542
H    -3.87924   -1.22072   -4.34570
H    -4.10277    0.53330   -4.14970
H    -4.35363   -0.56832   -2.75316
H    -1.88373   -1.46825    3.42235
H    -0.17700   -1.32958    3.90509
H    -1.21556   -4.71514    5.29084
H    -2.25381   -3.25110    5.09979
H    -0.52167   -3.08184    5.62038
