36
mol38-0
C    -6.09020    0.21850    0.69529
S    -4.30661    0.48699    0.95008
C    -3.58635   -0.32388   -0.46827
Si    -1.77393   -0.66587    0.00031
Si    -1.62878    1.27957    1.46197
Si    -1.69070    3.04468   -0.00695
Si    -1.67029    0.37222    3.62749
Si     1.41731    2.06262    0.15113
Si     1.35145    2.16880    2.44310
Si     1.44745    3.02205   -1.99233
Si    -1.97688   -2.69419    1.24820
Si    -2.76282   -1.61871    3.09638
Si    -0.98724   -4.14069   -0.22348
Si     1.06160   -1.54563    1.57204
Si     0.85728    0.04594    3.27132
Si     1.13080   -3.53403    0.44531
Si     1.83525   -0.29428   -0.26218
Si     2.20442   -0.76419   -2.57857
Si     2.77896    1.39940   -3.01959
Si     1.42258   -2.91692   -2.65870
Si    -0.94549   -0.05443   -2.12688
Si    -0.75021   -2.21216   -2.81014
Si    -1.01632    2.28513   -2.09743
C     3.61980   -0.22331    0.39327
S     4.18468    1.43574    0.05467
C     5.99672    1.25888    0.11453
H    -6.43542    0.83266   -0.13314
H    -6.24744   -0.83695    0.47984
H    -6.59011    0.49739    1.61781
H    -4.13090   -1.24794   -0.65553
H    -3.69264    0.32180   -1.34443
H     3.69663   -0.41756    1.46631
H     4.26733   -0.92622   -0.12942
H     6.27541    0.40584   -0.50179
H     6.31363    1.10525    1.14352
H     6.42114    2.17360   -0.28781
