36
mol40-0
C    -6.27974    0.51433    1.12196
S    -4.49700    0.32724    1.37574
C    -3.89999    0.47351   -0.31191
Si    -1.98776    0.35589   -0.24654
Si    -1.30326    2.21522    1.01736
Ge    -1.45806    1.70800    3.35823
Ge    -0.56100    3.65623   -0.89365
Si     1.68755    2.09931    0.65551
Ge     1.03072    1.41644    2.97007
Ge     1.94342    3.76730   -1.05103
Si    -1.54275    0.40843   -2.55432
Ge    -1.11975   -2.05220   -2.85678
Ge    -1.52109    2.71854   -3.21982
Si     1.37868   -0.18309   -2.62242
Ge     1.32998   -2.52296   -3.16192
Ge     0.94693    2.26084   -3.04170
Si     1.96905   -0.00341   -0.35349
Si     1.36380   -1.79142    1.04760
Ge     1.66195   -1.15742    3.34294
Ge     0.51011   -3.32957   -0.73859
Si    -1.64149   -1.68932    0.85693
Ge    -0.84468   -0.88328    3.08570
Ge    -1.99545   -3.44628   -0.73694
C     3.87393   -0.12836   -0.52834
S     4.57217    0.10859    1.10941
C     6.33662   -0.09488    0.75894
H    -6.64235   -0.31240    0.51459
H    -6.75340    0.50285    2.09829
H    -6.46800    1.46215    0.62154
H    -4.33559   -0.33205   -0.90290
H    -4.23547    1.42793   -0.71662
H     4.27201    0.64262   -1.18792
H     4.18512   -1.10427   -0.89982
H     6.49597   -1.06882    0.30041
H     6.66048    0.69701    0.08670
H     6.86833   -0.03101    1.70282
