36
mol66-0
C    -5.71340   -0.22230    0.98030
S    -4.89800    0.27060   -0.57220
C    -3.71860   -1.12070   -0.61470
Ge    -1.89790   -0.45890   -0.44080
Ge    -1.37530    1.06320   -2.20690
Si    -2.38250    3.10490   -1.80080
Si    -2.15750    0.22650   -4.21550
Ge     1.00230    1.33240   -2.28290
Si     1.89390    0.00990   -3.95640
Si     1.53390    3.53890   -2.72650
Ge    -0.43500   -2.34470   -0.59270
Si    -0.45980   -3.14230   -2.76280
Si    -1.18290   -4.01870    0.81640
Ge     1.78530   -1.68810    0.01620
Si     3.30000   -2.71590   -1.39920
Si     2.21970   -2.31300    2.20000
Ge     1.94180    0.69030   -0.17670
Ge     0.64330    1.68890    1.57630
Si     1.64130    1.43860    3.64900
Si     0.42010    3.94800    1.13780
Ge    -1.51580    0.65070    1.64640
Si    -1.59530   -0.91170    3.34850
Si    -3.10480    2.28150    2.05850
C     3.79180    1.30310   -0.15600
S     4.54010    1.04690    1.48870
C     5.57460   -0.37610    1.02330
H    -4.96610   -0.30760    1.79660
H    -6.46150    0.54830    1.25700
H    -6.23050   -1.19460    0.84310
H    -3.81030   -1.63170   -1.59480
H    -3.90590   -1.86730    0.18450
H     4.35580    0.78960   -0.96200
H     3.79410    2.39070   -0.37280
H     6.29320   -0.08370    0.22980
H     4.93810   -1.20900    0.66810
H     6.14190   -0.71620    1.91350
