180
mol61-0
C    -0.89718    0.01466    5.70310
S    -0.29099   -0.85988    4.21900
C    -0.90304    0.20020    2.90130
Ge    -0.26389   -0.70070    1.13352
Ge    -1.09453    3.77013    1.36179
C    -2.65089    4.44597    2.62065
C    -3.54679    3.22250    2.83783
C    -2.12237    4.89950    3.97973
C    -3.49996    5.55686    2.00994
C     0.28213    5.35330    1.25298
C    -0.29481    6.74074    0.99527
C     1.13661    5.38315    2.52148
C     1.18562    4.98585    0.07482
Ge    -0.75461    3.14008   -2.20765
C    -2.73667    3.80295   -2.41285
C    -2.88795    5.31736   -2.30222
C    -3.36780    3.30672   -3.71257
C    -3.49163    3.16842   -1.24333
C     0.33816    4.03032   -3.79219
C    -0.09338    3.43904   -5.13524
C     0.28785    5.55214   -3.87804
C     1.78951    3.61157   -3.53276
Ge    -2.16538   -2.49288    1.01640
C    -1.86843   -4.34808    1.95946
C    -1.67441   -4.19953    3.46136
C    -2.99101   -5.33196    1.66659
C    -0.56575   -4.85104    1.36365
C    -4.09915   -1.72541    1.54958
C    -4.21908   -1.94588    3.05285
C    -5.24051   -2.45427    0.85532
C    -4.20347   -0.22696    1.25302
Ge    -1.42317   -2.91512   -1.64368
C    -1.08544   -4.77190   -2.64002
C     0.30750   -5.28903   -2.32187
C    -2.13523   -5.78466   -2.19956
C    -1.16710   -4.57909   -4.14605
C    -2.75580   -1.77287   -2.82060
C    -4.05216   -2.57328   -2.87620
C    -2.98285   -0.50696   -2.01150
C    -2.36395   -1.37430   -4.23489
Ge     0.95275   -1.68253   -1.31265
Ge     3.43765   -1.44394   -0.14980
C     4.01804   -3.34339   -0.87701
C     3.72286   -3.57704   -2.35423
C     5.50328   -3.59868   -0.63552
C     3.20846   -4.34919   -0.06786
C     4.54622   -0.01855   -1.31063
C     4.61852   -0.40080   -2.78204
C     5.96704    0.05193   -0.75776
C     3.93054    1.37121   -1.18633
Ge     2.06953   -1.16827    2.45823
C     2.80024    0.75270    2.89601
C     2.28167    1.65778    1.78612
C     4.32322    0.74596    2.86862
C     2.35029    1.32245    4.23791
C     3.07197   -2.54281    3.74761
C     2.28390   -3.84231    3.67557
C     4.50609   -2.77947    3.30440
C     3.05951   -2.05375    5.18779
C     0.84592   -0.30611   -2.82455
S     1.16715   -1.36973   -4.25660
C     1.28726   -0.15041   -5.59793
H    -1.98338    0.03465    5.68417
H    -0.49643    1.02397    5.72939
H    -0.55077   -0.54559    6.56541
H    -1.98506    0.22716    2.97081
H    -0.51560    1.21086    3.04214
H    -2.98556    2.41550    3.30962
H    -4.39331    3.46585    3.48250
H    -3.93853    2.85459    1.88979
H    -1.45882    4.14471    4.40695
H    -2.94442    5.05952    4.68104
H    -1.57226    5.83412    3.89400
H    -2.92526    6.46917    1.87294
H    -3.90117    5.25608    1.04166
H    -4.34644    5.78981    2.66151
H    -0.84378    7.11041    1.85899
H    -0.96734    6.72872    0.13536
H     0.50276    7.45561    0.78015
H     0.56670    5.75126    3.37189
H     1.50542    4.38573    2.76481
H     1.99982    6.03969    2.38935
H     0.62347    5.04999   -0.86061
H     1.56216    3.96664    0.17150
H     2.03977    5.66185    0.00088
H    -3.93873    5.59539   -2.19773
H    -2.49830    5.82280   -3.18164
H    -2.35381    5.68860   -1.42539
H    -4.44353    3.49439   -3.71601
H    -3.21247    2.23432   -3.82766
H    -2.94033    3.81150   -4.57425
H    -3.13471    3.58664   -0.29974
H    -3.34003    2.09105   -1.20974
H    -4.56363    3.36259   -1.31468
H    -0.23794    2.36107   -5.05268
H    -1.02491    3.88053   -5.47943
H     0.66411    3.62079   -5.90037
H    -0.69506    5.89821   -4.18722
H     1.01024    5.91668   -4.61252
H     0.53055    6.01061   -2.91960
H     1.87957    2.52609   -3.55640
H     2.12962    3.95955   -2.55759
H     2.45746    4.02103   -4.29232
H    -2.60372   -3.97209    3.97353
H    -0.96070   -3.40603    3.67395
H    -1.28598   -5.12936    3.87956
H    -3.89928   -5.05954    2.19983
H    -2.70937   -6.33800    1.98362
H    -3.21331   -5.35837    0.60060
H     0.22418   -4.11496    1.52012
H    -0.25555   -5.79142    1.82029
H    -0.68716   -5.00641    0.29552
H    -3.34190   -1.57687    3.57989
H    -4.33577   -3.00241    3.27422
H    -5.09578   -1.42848    3.44620
H    -5.16059   -3.52998    0.98825
H    -6.19754   -2.13197    1.27065
H    -5.25141   -2.23591   -0.20837
H    -3.22864    0.26601    1.24700
H    -4.82221    0.26583    2.00477
H    -4.67407   -0.04786    0.28935
H     1.05285   -4.59273   -2.70078
H     0.46818   -6.25404   -2.80580
H     0.46546   -5.42332   -1.25588
H    -2.00164   -6.05512   -1.15638
H    -3.14031   -5.38820   -2.33141
H    -2.05149   -6.69497   -2.79572
H    -2.18026   -4.34334   -4.46055
H    -0.87182   -5.50019   -4.65219
H    -0.49101   -3.78912   -4.46778
H    -4.88104   -1.94410   -3.20592
H    -4.29635   -2.97789   -1.89515
H    -3.96727   -3.40230   -3.57495
H    -3.81567    0.06948   -2.41835
H    -3.20517   -0.76472   -0.98032
H    -2.09369    0.12791   -2.01250
H    -1.49730   -0.72217   -4.23541
H    -3.18923   -0.82555   -4.69803
H    -2.14361   -2.23110   -4.86229
H     4.43533   -3.06899   -2.99716
H     2.72180   -3.22771   -2.62112
H     3.78286   -4.64438   -2.58092
H     5.78784   -3.36709    0.39027
H     6.11512   -2.99779   -1.30467
H     5.74138   -4.64738   -0.82381
H     2.14334   -4.11458   -0.12197
H     3.35514   -5.36167   -0.44669
H     3.51580   -4.33778    0.97440
H     5.00986    0.43305   -3.36979
H     5.29335   -1.23885   -2.92659
H     3.64364   -0.66943   -3.18120
H     5.97076    0.36502    0.28423
H     6.47164   -0.90813   -0.82567
H     6.54979    0.77902   -1.32552
H     4.14481    1.79741   -0.21178
H     2.85077    1.35741   -1.33065
H     4.35522    2.04182   -1.93455
H     2.37210    1.16444    0.82329
H     2.84075    2.59373    1.75732
H     1.22803    1.90270    1.93353
H     4.71408    1.76584    2.87985
H     4.68396    0.24527    1.97029
H     4.72460    0.23251    3.73832
H     2.55377    0.64124    5.05854
H     1.28635    1.54265    4.23330
H     2.87430    2.25950    4.44067
H     1.26787   -3.68218    4.02946
H     2.74513   -4.60877    4.30105
H     2.24198   -4.21727    2.65657
H     4.93577   -3.62325    3.84750
H     5.12884   -1.91002    3.49480
H     4.55168   -2.99843    2.24008
H     3.68102   -1.17055    5.31098
H     3.45526   -2.83050    5.84581
H     2.04454   -1.82646    5.50901
H     1.63100    0.44261   -2.77983
H    -0.11578    0.19278   -2.94286
H     2.04926    0.58462   -5.35398
H     1.56377   -0.69373   -6.49641
H     0.32091    0.32727   -5.74068
