84
mol24-4
C     5.38336   -0.91091    1.11953
S     3.69642   -1.59477    1.06683
C     2.90300   -0.03624    0.51111
C     1.33687   -0.03866    0.27554
C     0.86878    1.36547   -0.40806
O     1.26161    2.57702    0.28199
C     2.61242    2.96850    0.44397
O     1.19364    1.32235   -1.81123
C     2.17607    2.18361   -2.33913
C    -0.73916    1.43220   -0.34232
O    -1.12571    2.16209    0.83909
C    -1.89581    3.33737    0.68782
O    -1.31108    1.96391   -1.55237
C    -0.83182    3.21453   -2.01751
C     0.56257   -0.25004    1.66360
O     0.64439    0.98410    2.40445
C     1.62120    1.06907    3.42896
O     1.17094   -1.35146    2.36150
C     0.62193   -1.67165    3.62970
C    -0.98425   -0.56090    1.35984
O    -1.12233   -1.99215    1.39801
C    -2.15061   -2.54368    2.19271
O    -1.67255    0.10287    2.44829
C    -3.06379    0.34500    2.39235
C    -1.31435   -0.05662   -0.15038
C    -0.58122   -1.04474   -1.20750
O    -1.26385   -2.31371   -1.13777
C    -1.15859   -3.19889   -2.23924
O    -0.60988   -0.45952   -2.51967
C    -1.85186   -0.46612   -3.21172
C     0.96099   -1.23289   -0.74383
O     1.08357   -2.44365    0.01488
C     1.62727   -3.53315   -0.68379
O     1.96770   -1.13494   -1.78061
C     1.77915   -1.77210   -3.02886
C    -2.83624   -0.21627   -0.39456
S    -3.75585    0.82215   -0.79453
C    -5.31292    0.50326   -1.01908
H     5.68335   -0.55525    0.11194
H     5.43335   -0.07227    1.84480
H     6.08558   -1.70635    1.44257
H     3.17532    0.69583    1.27940
H     3.41842    0.24656   -0.42656
H     3.36375    2.40635   -0.12080
H     2.70446    4.02915    0.13265
H     2.87836    2.94491    1.51709
H     3.19314    1.78327   -2.16272
H     2.05568    2.18774   -3.44147
H     2.05106    3.23844   -2.02966
H    -2.72096    3.23707   -0.04237
H    -2.37205    3.56180    1.66369
H    -1.24582    4.20642    0.46522
H    -0.38828    3.07891   -3.02456
H    -0.09473    3.70795   -1.36012
H    -1.69217    3.90337   -2.14258
H     2.01229    2.10422    3.46094
H     2.48643    0.38691    3.31169
H     1.14308    0.89429    4.41406
H    -0.17837   -0.99094    3.97905
H     0.23501   -2.70999    3.60659
H     1.43519   -1.65429    4.38397
H    -1.90607   -3.61148    2.36508
H    -3.11351   -2.54351    1.64629
H    -2.22815   -2.08680    3.20030
H    -3.27816    1.30092    1.88565
H    -3.66500   -0.47351    1.96902
H    -3.42397    0.47082    3.43341
H    -0.54655   -4.07797   -1.96566
H    -0.78472   -2.76167   -3.17894
H    -2.17292   -3.58906   -2.46092
H    -2.24438    0.56401   -3.30625
H    -2.63625   -1.11609   -2.77806
H    -1.67178   -0.82037   -4.24730
H     1.29127   -4.47712   -0.20849
H     0.00000    0.00000    0.00000
H     2.73482   -3.50073   -0.67991
H     1.33391   -2.77282   -2.97626
H     2.78362   -1.93178   -3.47056
H     1.25316   -1.11476   -3.74716
H     0.00000    0.00000    0.00000
H    -3.25995   -1.20634   -0.26735
H    -5.83863    1.43243   -1.31984
H    -5.75376    0.11977   -0.07558
H    -5.42506   -0.25847   -1.81829
