144
mol31-0
C    -0.54318   -2.33425   -4.94521
S     0.27678   -0.97122   -4.96580
C     0.58507   -0.07446   -3.88418
Si     0.21837   -0.20440   -2.03185
Si    -2.06494   -0.57630   -1.34142
C    -3.27782   -1.90856   -2.06896
C    -3.75947   -1.61993   -3.48325
C    -2.88521   -3.38053   -1.93964
C    -2.84623    1.07640   -1.96026
C    -4.25071    1.40287   -1.46952
C    -2.80675    1.27108   -3.48848
Si    -2.14878   -0.78979    1.04294
C    -2.50815   -2.58201    1.72492
C    -3.91707   -3.12989    1.43946
C    -2.24143   -2.72837    3.23451
C    -3.66393    0.14203    1.80827
C    -5.04847   -0.15695    1.20984
C    -3.76778    0.11734    3.34167
Si     1.83407   -1.65810   -1.08176
C     3.54807   -1.72880   -2.04926
C     4.28842   -3.07931   -1.91509
C     4.56874   -0.61771   -1.77880
C     1.30963   -3.51105   -1.30856
C     1.24407   -3.98274   -2.77516
C     0.03477   -3.87813   -0.58026
Si     1.92075   -1.13436    1.21549
C     3.49370   -0.11515    1.67329
C     4.83184   -0.79509    1.32956
C     3.51674    0.29641    3.11786
C     2.16657   -2.84703    2.12221
C     3.26214   -2.93116    3.19483
C     0.88767   -3.40783    2.71490
Si    -0.05694    0.16177    1.71734
Si    -0.09697    2.31838    0.73520
C     0.85874    3.73693    1.65197
C     2.30954    3.41761    2.00131
C     0.15620    4.31133    2.89208
C    -1.93194    2.96177    0.74035
C    -2.19063    4.29610    0.03302
C    -2.63360    2.99661    2.09822
Si     0.69968    2.06635   -1.46016
C     2.58266    2.43508   -1.57553
C     3.02398    3.88283   -1.30866
C     3.20673    1.99568   -2.90093
C    -0.09040    3.35730   -2.67856
C     0.27360    3.14488   -4.11632
C     0.14602    4.82946   -2.31241
C    -0.00564    0.63870    3.55775
S     0.59194   -0.66317    4.67533
C     0.56759    0.38448    6.16343
H     0.11440   -3.16776   -5.26247
H    -0.91965   -2.48676   -3.93093
H    -1.38188   -2.26771   -5.66670
H     1.12842    0.79629   -4.18786
H     0.00000    0.00000    0.00000
H    -4.19375   -1.79137   -1.46874
H     0.00000    0.00000    0.00000
H    -4.52125   -2.35232   -3.82636
H    -2.94042   -1.53702   -4.20925
H    -3.72531   -4.02687   -2.27282
H    -2.68661   -3.65234   -0.89477
H    -2.01171   -3.63639   -2.55236
H    -2.19951    1.82466   -1.50940
H    -4.21817    1.65075   -0.39696
H    -4.63090    2.32043   -1.96865
H    -4.95555    0.57926   -1.69989
H    -3.68784    0.82387   -3.98671
H    -1.88834    0.85546   -3.93406
H    -2.86339    2.34990   -3.73957
H    -1.82888   -3.26758    1.20903
H    -4.29922   -2.81764    0.45814
H    -3.89387   -4.24088    1.45579
H    -4.65003   -2.81435    2.20724
H    -3.13377   -2.52025    3.85537
H    -1.93189   -3.77080    3.46242
H    -1.44841   -2.04300    3.56620
H     0.00000    0.00000    0.00000
H    -4.97251   -0.57678    0.19913
H    -5.63878   -0.87342    1.81334
H    -5.63869    0.78186    1.17635
H    -4.18832    1.07939    3.69890
H    -2.79531   -0.04624    3.82195
H    -4.44146   -0.68755    3.69935
H     3.26274   -1.62963   -3.11828
H     3.79911   -3.88517   -2.48560
H     4.37649   -3.38024   -0.85112
H     5.31105   -3.01912   -2.34735
H     4.15263    0.14529   -1.12321
H     4.91123   -0.17257   -2.73551
H     5.50103   -0.98796   -1.30484
H     2.10814   -4.11230   -0.82968
H     1.70485   -3.25864   -3.47156
H     0.21172   -4.18493   -3.10940
H     1.77742   -4.95131   -2.88363
H    -0.52145   -4.69843   -1.07900
H    -0.58838   -2.97717   -0.50336
H     0.26654   -4.29244    0.40793
H     3.43152    0.80020    1.07855
H     4.67774   -1.69094    0.70297
H     5.40619   -1.12337    2.22024
H     5.49850   -0.07165    0.81547
H     2.70230    0.82070    3.56605
H     0.00000    0.00000    0.00000
H     4.36861    0.10398    3.76263
H     2.48710   -3.54444    1.32451
H     3.14869   -2.13630    3.95600
H     4.26702   -2.91959    2.74234
H     3.20380   -3.90617    3.72636
H     0.76854   -3.16721    3.78743
H     0.87377   -4.51583    2.63227
H     0.05602   -2.98830    2.15725
H     0.87955    4.57535    0.93336
H     2.88039    4.36327    2.12187
H     2.37617    2.87548    2.95807
H     2.79559    2.84473    1.20651
H    -0.63144    5.02748    2.58828
H    -0.27778    3.51995    3.52989
H     0.86456    4.89956    3.51489
H     0.00000    0.00000    0.00000
H    -2.17372    4.17702   -1.05478
H    -3.21347    4.66817    0.25836
H    -1.47010    5.07107    0.35854
H    -2.55458    3.98056    2.59839
H    -2.23139    2.23684    2.77112
H    -3.71690    2.81709    1.94373
H     3.00550    1.83296   -0.77078
H     2.36386    4.40374   -0.60648
H     3.07829    4.47780   -2.24288
H     4.04599    3.88241   -0.87232
H     2.97721    0.94186   -3.11139
H     4.31082    2.10793   -2.85113
H     2.85650    2.61330   -3.74672
H    -1.16633    3.22033   -2.64962
H    -0.42190    2.64274   -4.78039
H     0.00000    0.00000    0.00000
H     1.06703    3.71865   -4.58339
H     0.18817    4.97284   -1.22066
H    -0.68623    5.45166   -2.70685
H     1.07671    5.22995   -2.75717
H    -0.97403    0.98757    3.92593
H     0.66614    1.50269    3.65267
H     1.25753    1.24455    6.03583
H    -0.46185    0.75274    6.35458
H     0.90137   -0.21672    7.03363
