72
mol63-2
C    -6.92969   -2.08439   -0.33101
S    -1.22150   -4.49125   -6.19877
C    -3.85542    0.40144   -0.85037
Ge    -1.74438    0.33155   -0.13005
Ge    -1.58398   -1.25083    1.50562
C    -5.65796  -12.28432  -10.17879
Cl    -2.61155   -1.46594    3.91745
Cl    -0.92013   -4.28983    0.69901
Cl    -2.61505   -1.46680    3.92373
C    -1.48175    2.79211    9.18444
Cl    -2.68430    0.36196    4.80631
Cl    -2.30761   -1.04361    1.98549
Cl    -2.61462   -1.46627    3.92374
Ge     0.73626   -1.19278    2.07481
C    -5.32133  -18.61582   12.79064
Cl     2.81317   -0.33765    4.11481
Cl    -4.20498  -12.89884   10.63265
Cl     0.12087    0.24093    4.83893
C     7.02428   20.17365   -5.70063
Cl     2.09895   -3.81105    0.82336
Cl    -2.89800   -7.92040    8.96018
Cl     3.21990   -2.53590    3.06522
Ge    -1.25348    2.43384    0.14913
C    -0.56690   11.66074    4.60487
Cl    -3.17557    3.24151   -2.13134
Cl    -0.66313    4.71519   -1.95793
Cl    -1.58393    9.16180    3.35537
C    -9.00893  -11.48323   -6.89558
Cl    -1.60973    9.13385    3.18624
Cl    -1.93332    2.58438    3.29718
Cl    -1.58393    9.16179    3.35537
Ge     1.13831    2.36373    0.49333
C     3.99981    5.33499   -4.14414
Cl     2.23952    3.63874   -2.19820
Cl     1.55338    5.32085   -0.16382
Cl     3.57055    5.00148   -2.76577
C     1.65496    0.33872    7.50091
Cl     0.96821    2.83694    3.65114
Cl     1.68548    5.00108    2.05338
Cl     2.24060    2.41318    3.28745
Ge     1.89048    0.10609    0.36359
Ge     1.55632   -0.82862   -1.79494
C    10.79176  -39.69492   16.83114
Cl     1.57978    3.90896   -6.35082
Cl     0.86506   -3.99420   -1.92149
Cl     1.56512    3.89909   -6.33923
C    -1.23574   18.17271  -13.30299
Cl     4.25484    1.38947   -1.79787
Cl     1.57834    3.90983   -6.35077
Cl     2.22800    0.76457   -4.55425
Ge    -0.76856   -0.52268   -2.34535
C    -7.98535   22.04196   35.17951
Cl    -0.32207   -0.32839   -5.31841
Cl    -0.44479    2.12212   -3.98244
Cl    -2.46833   -0.14947   -1.61147
C    -0.27659  -13.71622  -25.01637
Cl    -2.01846   -3.46761   -2.06736
Cl    -0.49461  -12.64114  -23.15848
Cl    -0.95303   -2.74805   -4.59032
C    13.59541   11.42792  -11.59423
S     4.72642   -1.25937    0.36801
C     6.45221   -1.06285    0.84541
H    -5.88447   -2.86382   -1.16228
H    -6.79776   -1.84547    0.03450
H    -7.03487   -1.60147   -1.72623
H    -4.14336    1.39489   -0.31168
H    -3.68655    0.91252   -1.91633
H     4.14753   -0.69772    0.57489
H     3.75155    0.28544    1.67626
H     6.62628   -0.01219    1.22259
H     7.10387   -1.14504   -0.05738
H     6.76852   -1.76189    1.64045
