
     RDKit          3D

 72 79  0  0  0  0  0  0  0  0999 V2000
    1.2166    4.7044    2.4918 C   0  0  0  0  0  0  0  0  0  0  0  0
    1.8110    3.3537    1.4354 S   0  0  0  0  0  0  0  0  0  0  0  0
    0.3580    2.2779    1.6071 C   0  0  0  0  0  0  0  0  0  0  0  0
    0.2231    1.0402    0.7299 C   0  0  2  0  0  0  0  0  0  0  0  0
   -0.0528    1.4464   -0.7654 C   0  0  2  0  0  0  0  0  0  0  0  0
    1.2864    2.8948   -1.4794 Ge  0  0  0  0  0  5  0  0  0  0  0  0
   -1.5580    2.7914   -1.1629 Ge  0  0  0  0  0  5  0  0  0  0  0  0
   -0.1940    0.1456   -1.6193 C   0  0  1  0  0  0  0  0  0  0  0  0
   -1.7522    0.1108   -3.0234 Ge  0  0  0  0  0  5  0  0  0  0  0  0
    1.1050    0.1306   -3.2147 Ge  0  0  0  0  0  5  0  0  0  0  0  0
   -1.0358    0.2737    1.3238 C   0  0  1  0  0  0  0  0  0  0  0  0
   -1.0445   -0.2947    3.3028 Ge  0  0  0  0  0  5  0  0  0  0  0  0
   -2.6040    1.6039    1.8129 Ge  0  0  0  0  0  5  0  0  0  0  0  0
   -1.3727   -0.9377    0.4060 C   0  0  2  0  0  0  0  0  0  0  0  0
   -3.3500   -0.7844   -0.1704 Ge  0  0  0  0  0  5  0  0  0  0  0  0
   -1.8457   -2.7351    1.3419 Ge  0  0  0  0  0  5  0  0  0  0  0  0
   -0.2144   -1.0939   -0.6495 C   0  0  2  0  0  0  0  0  0  0  0  0
    1.1830   -1.2215    0.0961 C   0  0  1  0  0  0  0  0  0  0  0  0
    1.5268   -2.8145    1.3547 Ge  0  0  0  0  0  5  0  0  0  0  0  0
    2.6709   -2.0376   -1.1642 Ge  0  0  0  0  0  5  0  0  0  0  0  0
    1.4997    0.1220    0.8159 C   0  0  1  0  0  0  0  0  0  0  0  0
    3.3509    0.7799    0.1791 Ge  0  0  0  0  0  5  0  0  0  0  0  0
    2.2692    0.0069    2.7459 Ge  0  0  0  0  0  5  0  0  0  0  0  0
   -0.3401   -2.3912   -1.4373 C   0  0  0  0  0  0  0  0  0  0  0  0
   -1.8983   -2.7895   -2.2809 S   0  0  0  0  0  0  0  0  0  0  0  0
   -1.2917   -4.2286   -3.2055 C   0  0  0  0  0  0  0  0  0  0  0  0
    2.0111    5.4400    2.4969 H   0  0  0  0  0  0  0  0  0  0  0  0
    1.0498    4.3268    3.4969 H   0  0  0  0  0  0  0  0  0  0  0  0
    0.3058    5.1352    2.0816 H   0  0  0  0  0  0  0  0  0  0  0  0
    0.3452    1.9839    2.6591 H   0  0  0  0  0  0  0  0  0  0  0  0
   -0.4829    2.9439    1.4160 H   0  0  0  0  0  0  0  0  0  0  0  0
    0.8053    4.2702   -1.0912 H   0  0  0  0  0  0  0  0  0  0  0  0
    1.0723    2.9232   -2.9739 H   0  0  0  0  0  0  0  0  0  0  0  0
    2.7810    2.9305   -1.3257 H   0  0  0  0  0  0  0  0  0  0  0  0
   -1.2668    3.4712   -2.4673 H   0  0  0  0  0  0  0  0  0  0  0  0
   -2.9535    2.2611   -1.3252 H   0  0  0  0  0  0  0  0  0  0  0  0
   -1.5948    3.9476   -0.1888 H   0  0  0  0  0  0  0  0  0  0  0  0
   -3.2062   -0.1862   -2.7859 H   0  0  0  0  0  0  0  0  0  0  0  0
   -1.3537   -0.7335   -4.2074 H   0  0  0  0  0  0  0  0  0  0  0  0
   -1.7570    1.4903   -3.6377 H   0  0  0  0  0  0  0  0  0  0  0  0
    1.1699   -1.2075   -3.9162 H   0  0  0  0  0  0  0  0  0  0  0  0
    2.5072    0.6178   -2.9876 H   0  0  0  0  0  0  0  0  0  0  0  0
    0.5679    1.0350   -4.2835 H   0  0  0  0  0  0  0  0  0  0  0  0
   -2.4742   -0.4736    3.7256 H   0  0  0  0  0  0  0  0  0  0  0  0
   -0.4077   -1.6122    3.6381 H   0  0  0  0  0  0  0  0  0  0  0  0
   -0.5286    0.7370    4.2756 H   0  0  0  0  0  0  0  0  0  0  0  0
   -2.1392    2.3602    3.0466 H   0  0  0  0  0  0  0  0  0  0  0  0
   -3.2013    2.6942    0.9605 H   0  0  0  0  0  0  0  0  0  0  0  0
   -3.8034    0.8718    2.3312 H   0  0  0  0  0  0  0  0  0  0  0  0
   -3.9606   -1.7360   -1.1455 H   0  0  0  0  0  0  0  0  0  0  0  0
   -4.1417   -1.0464    1.0853 H   0  0  0  0  0  0  0  0  0  0  0  0
   -3.7762    0.6098   -0.5458 H   0  0  0  0  0  0  0  0  0  0  0  0
   -2.5589   -3.5848    0.3282 H   0  0  0  0  0  0  0  0  0  0  0  0
   -2.8758   -2.4836    2.3990 H   0  0  0  0  0  0  0  0  0  0  0  0
   -0.8911   -3.6849    2.0188 H   0  0  0  0  0  0  0  0  0  0  0  0
    1.0592   -4.1557    0.8454 H   0  0  0  0  0  0  0  0  0  0  0  0
    3.0126   -2.9966    1.4733 H   0  0  0  0  0  0  0  0  0  0  0  0
    1.0723   -2.6709    2.7782 H   0  0  0  0  0  0  0  0  0  0  0  0
    3.0353   -1.6222   -2.5660 H   0  0  0  0  0  0  0  0  0  0  0  0
    3.9960   -2.1141   -0.4700 H   0  0  0  0  0  0  0  0  0  0  0  0
    2.3171   -3.5063   -1.3305 H   0  0  0  0  0  0  0  0  0  0  0  0
    3.9043    2.1005    0.6010 H   0  0  0  0  0  0  0  0  0  0  0  0
    3.5852    0.6224   -1.2998 H   0  0  0  0  0  0  0  0  0  0  0  0
    4.3341   -0.1948    0.7753 H   0  0  0  0  0  0  0  0  0  0  0  0
    2.9081    1.3336    3.0452 H   0  0  0  0  0  0  0  0  0  0  0  0
    3.4107   -0.9621    2.7634 H   0  0  0  0  0  0  0  0  0  0  0  0
    1.5154   -0.3364    4.0048 H   0  0  0  0  0  0  0  0  0  0  0  0
   -0.1500   -3.2403   -0.7767 H   0  0  0  0  0  0  0  0  0  0  0  0
    0.3980   -2.3948   -2.2387 H   0  0  0  0  0  0  0  0  0  0  0  0
   -2.1436   -4.5940   -3.7651 H   0  0  0  0  0  0  0  0  0  0  0  0
   -0.9506   -4.9866   -2.5057 H   0  0  0  0  0  0  0  0  0  0  0  0
   -0.4923   -3.9359   -3.8827 H   0  0  0  0  0  0  0  0  0  0  0  0
  1  2  1  0
  1 27  1  0
  1 28  1  0
  1 29  1  0
  2  3  1  0
  4  3  1  1
  3 30  1  0
  3 31  1  0
  4  5  1  0
  4 11  1  0
  4 21  1  0
  5  6  1  6
  5  7  1  0
  5  8  1  0
  6  7  1  0
  6 32  1  0
  6 33  1  0
  6 34  1  0
  7 35  1  0
  7 36  1  0
  7 37  1  0
  8  9  1  6
  8 10  1  0
  8 17  1  0
  9 10  1  0
  9 38  1  0
  9 39  1  0
  9 40  1  0
 10 41  1  0
 10 42  1  0
 10 43  1  0
 11 12  1  1
 11 13  1  0
 11 14  1  0
 12 13  1  0
 12 44  1  0
 12 45  1  0
 12 46  1  0
 13 47  1  0
 13 48  1  0
 13 49  1  0
 14 15  1  6
 14 16  1  0
 14 17  1  0
 15 16  1  0
 15 50  1  0
 15 51  1  0
 15 52  1  0
 16 53  1  0
 16 54  1  0
 16 55  1  0
 17 18  1  0
 17 24  1  6
 18 19  1  1
 18 20  1  0
 18 21  1  0
 19 20  1  0
 19 56  1  0
 19 57  1  0
 19 58  1  0
 20 59  1  0
 20 60  1  0
 20 61  1  0
 21 22  1  6
 21 23  1  0
 22 23  1  0
 22 62  1  0
 22 63  1  0
 22 64  1  0
 23 65  1  0
 23 66  1  0
 23 67  1  0
 24 25  1  0
 24 68  1  0
 24 69  1  0
 25 26  1  0
 26 70  1  0
 26 71  1  0
 26 72  1  0
M  CHG  8   6   1   7   1   9   1  10   1  12   1  13   1  15   1  16   1
M  CHG  4  19   1  20   1  22   1  23   1
M  END
