144
mol59-0
C     4.47623    2.57419    4.10419
S     3.51768    1.11532    3.58859
C     2.67030    1.95869    2.22273
Ge     1.38986    0.83000    1.21552
Ge    -0.50912    0.14405    2.66288
C    -0.05905   -1.33105    3.91645
C    -1.10069   -1.51894    5.03404
C     1.31907   -1.15511    4.53212
C    -1.11129    1.55071    3.95945
C    -0.00863    2.54168    4.31391
C    -2.39104    2.27264    3.54897
Ge    -2.21642   -0.85102    1.19505
C    -2.62383   -2.67166    1.93300
C    -4.11184   -3.01418    2.05202
C    -1.88513   -3.77894    1.19511
C    -3.82555    0.30956    1.28466
C    -4.60428    0.17833    2.60028
C    -4.76526    0.09614    0.10252
Ge     2.48795   -1.10041    0.12306
C     4.11645   -0.51312   -0.85000
C     5.17286    0.12205    0.06581
C     4.74840   -1.66944   -1.63062
C     3.11567   -2.64865    1.21851
C     4.25230   -2.31285    2.18790
C     1.97381   -3.39689    1.90934
Ge     0.84050   -2.02782   -1.44154
C     1.42823   -1.90900   -3.30780
C     1.05975   -2.97245   -4.30048
C     2.20300   -0.73497   -3.80692
C     0.75034   -3.98304   -1.08885
C     2.05141   -4.73751   -1.38923
C    -0.45019   -4.69502   -1.70982
Ge    -1.32804   -0.87933   -1.13034
Ge    -1.11080    1.43144   -1.95573
C    -0.52862    1.45468   -3.86051
C    -1.03110    0.23073   -4.62349
C    -0.97607    2.68432   -4.59902
C    -2.83294    2.43745   -1.91819
C    -3.87741    1.87901   -2.89588
C    -2.64303    3.92933   -2.22657
Ge     0.62747    2.42983   -0.51786
C     2.11479    2.95583   -1.73030
C     1.72414    4.09300   -2.68348
C     3.39964    3.30716   -0.98518
C     0.07439    4.01791    0.54805
C     0.38780    5.38853   -0.06004
C    -1.38072    3.93883    0.99127
C    -2.53291   -1.79586   -2.38789
S    -3.84012   -2.74848   -1.56011
C    -4.54610   -3.40604   -3.10273
H     5.11269    2.30036    4.97026
H     3.79123    3.39333    4.40711
H     5.12819    2.91599    3.27347
H     2.15279    2.83755    2.63128
H     3.43672    2.35201    1.54389
H    -0.05508   -2.25949    3.32440
H    -2.12154   -1.26252    4.68590
H    -0.87003   -0.89210    5.92159
H    -1.10138   -2.57804    5.36966
H     1.55928   -2.01601    5.19202
H     2.06706   -1.12681    3.72578
H     1.36923   -0.22334    5.13084
H    -1.34735    1.04463    4.91157
H    -0.30196    3.12711    5.21176
H     0.14799    3.25495    3.48889
H     0.93096    2.01101    4.55450
H    -3.23961    1.90457    4.15834
H    -2.34331    3.36234    3.75428
H     0.00000    0.00000    0.00000
H    -2.24312   -2.68946    2.96322
H    -4.66634   -2.74040    1.13847
H    -4.24795   -4.10417    2.22237
H    -4.55037   -2.51706    2.93737
H    -1.60780   -4.59283    1.89892
H    -0.96834   -3.37599    0.75068
H    -2.51496   -4.22403    0.40150
H    -3.44292    1.34572    1.21671
H    -5.44358   -0.54136    2.51969
H    -5.06217    1.15615    2.86005
H    -3.94100   -0.14641    3.42686
H    -5.44856    0.96559   -0.00237
H    -5.37883   -0.81875    0.21435
H    -4.17557   -0.00257   -0.81453
H     3.80160    0.26186   -1.57012
H     5.90412   -0.61720    0.44546
H     5.75343    0.87984   -0.50217
H     4.70759    0.61446    0.93337
H     5.54566   -1.28182   -2.29993
H     5.19711   -2.41745   -0.94470
H     3.99762   -2.18572   -2.25154
H     3.55478   -3.36055    0.49495
H     5.22271   -2.32004    1.65661
H     4.10228   -1.32662    2.64846
H     4.33641   -3.07615    2.99076
H     2.02135   -4.48027    1.67286
H     2.01939   -3.31704    3.01188
H     1.00690   -3.01303    1.55712
H     0.00000    0.00000    0.00000
H     1.39645   -2.69710   -5.32235
H    -0.03995   -3.09867   -4.32919
H     1.54805   -3.92769   -4.03714
H     3.23904   -1.03423   -4.06084
H     2.20878    0.04469   -3.03867
H     1.73920   -0.33201   -4.72869
H     0.00000    0.00000    0.00000
H     1.97121   -5.36500   -2.30106
H     2.28175   -5.41271   -0.54087
H     2.89864   -4.04630   -1.53709
H    -1.36955   -4.12125   -1.54069
H    -0.32431   -4.84435   -2.79900
H    -0.57340   -5.68889   -1.23134
H     0.57368    1.45928   -3.87287
H    -2.13477    0.25283   -4.72933
H    -0.73887   -0.69410   -4.10717
H    -0.58444    0.20564   -5.64059
H    -0.60157    3.66519   -4.35672
H     0.00000    0.00000    0.00000
H    -1.63598    2.61537   -5.45920
H    -3.22933    2.34716   -0.88850
H    -4.85389    2.38013   -2.72396
H    -4.03379    0.80161   -2.77518
H    -3.58084    2.05357   -3.94925
H    -2.77414    4.16261   -3.30333
H    -1.63338    4.25973   -1.94502
H    -3.39646    4.52893   -1.67296
H     2.33677    2.07496   -2.35227
H     0.63301    4.22575   -2.70444
H     2.16961    5.06522   -2.38457
H     2.07377    3.86586   -3.71328
H     3.20816    4.02481   -0.16315
H     3.84982    2.39040   -0.57956
H     4.14657    3.74675   -1.68064
H     0.69121    3.97119    1.45844
H    -0.13891    5.55780   -1.01494
H     1.47676    5.51126   -0.20662
H     0.06971    6.18830    0.64279
H    -1.50057    4.48465    1.94883
H    -2.06192    4.42490    0.27513
H    -1.68239    2.88324    1.11661
H    -3.00708   -1.06107   -3.05276
H    -1.93195   -2.47080   -3.02584
H    -4.88695   -2.57297   -3.75218
H    -5.41586   -4.04878   -2.85668
H    -3.78904   -4.01584   -3.63853
