144
mol59-4
C     4.90050    3.94796    1.50752
S     4.28504    2.41389    0.74665
C     2.53391    2.76986    1.08678
Ge     1.30664    1.34331    0.49655
Ge     0.50597    0.40265    2.64197
C     1.99323   -0.37930    3.72045
C     1.53947   -0.85078    5.10545
C     3.19650    0.55432    3.89068
C    -0.32214    1.80933    3.77619
C    -0.98232    1.26249    5.05077
C     0.66007    2.91910    4.14370
Ge    -1.21695   -1.24815    2.04272
C    -0.83404   -3.07157    2.74808
C     0.65945   -3.38250    2.80657
C    -1.48311   -3.34350    4.11356
C    -2.99829   -0.82561    2.82716
C    -4.08678   -1.80346    2.36404
C    -3.41683    0.62036    2.56852
Ge     2.35806   -0.29204   -1.06471
C     2.69157    0.74368   -2.74143
C     3.24793    2.13310   -2.43751
C     3.64373    0.08139   -3.74710
C     4.16112   -0.87857   -0.47066
C     4.09977   -1.47190    0.92903
C     4.84350   -1.83793   -1.45828
Ge     0.80453   -2.22399   -1.30695
C     0.57253   -2.89912   -3.14568
C    -0.31082   -4.07385   -3.45461
C     1.44110   -2.43360   -4.26805
C     1.43102   -3.84664   -0.32874
C     0.37017   -4.93995   -0.19435
C     2.71769   -4.45312   -0.89260
Ge    -1.35490   -1.42365   -0.40851
Ge    -1.88672    0.64032   -1.65807
C    -1.21336    0.11098   -3.43997
C    -2.11619   -0.93189   -4.09656
C    -0.97143    1.23862   -4.39275
C    -3.84785    0.94651   -1.89777
C    -4.22667    2.00242   -2.93885
C    -4.56077    1.22174   -0.58162
Ge    -0.53607    2.47758   -0.72412
C     0.04939    3.63031   -2.25273
C    -1.12494    4.10419   -3.11514
C     0.87015    4.86061   -1.85145
C    -1.54290    3.61626    0.55573
C    -0.61357    4.46721    1.41991
C    -2.57300    4.52640   -0.10988
C    -2.65327   -2.86605   -0.75849
S    -4.35100   -2.29912   -1.04938
C    -5.04649   -3.97239   -1.21969
H     4.62487    3.97755    2.58234
H     6.00575    3.97671    1.41958
H     4.47534    4.83025    0.98524
H     2.40940    2.91427    2.17407
H     2.25796    3.72163    0.61285
H     2.34799   -1.26176    3.16288
H     2.23070   -1.63597    5.47938
H     1.54957   -0.02374    5.84282
H     0.52171   -1.26985    5.06696
H     4.07587   -0.03210    4.23309
H     3.01608    1.34732    4.63771
H     3.46227    1.03330    2.94291
H    -1.10922    2.26420    3.15256
H    -1.82782    1.91939    5.34598
H    -1.36348    0.24004    4.89888
H    -0.28371    1.23492    5.90931
H     0.10729    3.84242    4.41906
H     1.30420    2.64137    4.99918
H     0.00000    0.00000    0.00000
H    -1.29502   -3.78011    2.03339
H     0.82400   -4.47220    2.68647
H     1.09339   -3.11621    3.78585
H     1.19885   -2.84230    2.01045
H    -1.27234   -2.52911    4.83119
H    -1.10524   -4.29829    4.53843
H    -2.58041   -3.45020    4.01990
H    -2.91642   -0.96011    3.92320
H    -4.85075   -1.91730    3.16255
H    -4.61129   -1.42851    1.47100
H    -3.67660   -2.80556    2.13539
H    -2.94293    0.97565    1.63982
H    -4.51992    0.72494    2.48565
H    -3.11645    1.27324    3.40503
H     1.70796    0.86881   -3.22519
H     4.29031    2.07051   -2.06226
H     2.63816    2.63251   -1.67751
H     3.23911    2.75909   -3.35550
H     4.70391    0.34958   -3.55542
H     3.58071   -1.00900   -3.72065
H     3.39542    0.42134   -4.77520
H     4.80661    0.01923   -0.41987
H     3.29761   -2.22717    1.01643
H     5.07109   -1.92267    1.22318
H     3.89937   -0.65618    1.63073
H     5.48273   -1.27197   -2.16397
H     4.10194   -2.41217   -2.04219
H     5.52160   -2.55188   -0.94454
H     0.00000    0.00000    0.00000
H    -1.08949   -3.77854   -4.18698
H    -0.80006   -4.47869   -2.56361
H     0.30013   -4.89103   -3.89256
H     2.46643   -2.81762   -4.10363
H     1.41398   -1.33447   -4.35343
H     1.08784   -2.84121   -5.23922
H     0.00000    0.00000    0.00000
H    -0.62614   -4.50823   -0.03177
H     0.35089   -5.59799   -1.08643
H     0.61540   -5.58594    0.67219
H     2.82249   -5.52013   -0.59974
H     2.73491   -4.39602   -2.00026
H     3.59184   -3.94578   -0.45776
H    -0.23949   -0.35029   -3.24287
H    -2.31106   -1.76838   -3.40017
H    -1.62274   -1.34313   -5.00309
H    -3.08768   -0.48781   -4.39586
H     0.03508    1.46132   -4.72791
H     0.00000    0.00000    0.00000
H    -1.78455    1.70787   -4.93091
H    -4.25525    0.00619   -2.30684
H    -5.31974    1.95477   -3.13345
H    -4.00597    3.02630   -2.59920
H    -3.72765    1.80664   -3.90196
H    -4.47534    0.33578    0.06548
H    -5.64360    1.40201   -0.75205
H    -4.12968    2.10146   -0.06980
H     0.68191    2.99192   -2.89540
H    -0.76750    4.33959   -4.14045
H    -1.60541    5.01656   -2.71232
H    -1.89124    3.32537   -3.18821
H     1.25823    5.35903   -2.76558
H     1.74238    4.60112   -1.23978
H     0.24925    5.59821   -1.30822
H    -2.09139    2.93213    1.22147
H     0.20470    3.85276    1.81040
H    -1.17673    4.88978    2.27920
H    -0.16508    5.30447    0.85353
H    -3.30688    4.87719    0.64681
H    -2.09509    5.42110   -0.55665
H    -3.12140    3.98604   -0.89204
H    -2.34995   -3.40725   -1.65999
H    -2.65569   -3.56424    0.09910
H    -6.13284   -3.89231   -1.42843
H    -4.55736   -4.50609   -2.06107
H    -4.90328   -4.54225   -0.27804
