132
mol50-4
C    -3.05610    3.30345   -4.35836
S    -2.22401    3.22276   -2.74227
C    -1.95394    1.41747   -2.80131
Si    -1.01275    0.68963   -1.31433
Si    -2.12056   -1.27594   -0.75738
N    -3.79490   -0.87593   -0.16903
C    -4.70066   -0.46088   -0.99265
C    -4.19091   -1.16405    1.19179
N    -2.32679   -2.45085   -2.14193
C    -2.49842   -1.84457   -3.46862
C    -3.42523   -3.39601   -1.88525
Si    -0.79485   -2.31939    0.87129
N     0.10407   -3.83784    0.32301
C    -0.58559   -4.68753   -0.66036
C     0.48136   -4.69445    1.46143
N    -1.81420   -2.79626    2.30544
C    -1.76020   -2.03047    3.50950
C    -2.61443   -3.82007    2.25790
Si     1.12796    0.21259   -2.10124
N     1.96498    1.71478   -2.76344
C     3.27486    1.45661   -3.38206
C     1.14270    2.52177   -3.67631
N     0.80704   -1.01228   -3.43683
C     1.58841   -0.90310   -4.67459
C     0.78386   -2.40144   -2.97614
Si     2.36049   -0.67605   -0.31174
N     2.96026   -2.34272   -0.81545
C     3.95782   -2.36193   -1.89695
C     3.38977   -3.22375    0.27350
N     3.72280    0.42819    0.22906
C     3.50433    1.85244   -0.03880
C     5.08311    0.03817   -0.15622
Si     0.91130   -0.84703    1.51919
Si     0.24965    1.28923    2.23464
N    -0.61077    1.38589    3.85804
C    -0.86534    2.77324    4.27716
C    -0.00404    0.65314    4.98011
N     1.76974    2.31633    2.34730
C     1.58285    3.76894    2.17430
C     2.56235    2.04863    3.55605
Si    -1.25063    1.99362    0.59201
N    -0.92502    3.72830    0.19418
C    -1.69484    4.81443    0.77275
C     0.05644    4.02145   -0.58649
N    -3.01999    1.72069    1.02899
C    -3.97702    2.42075    0.16151
C    -3.40453    1.86453    2.43637
C     1.60154   -1.74510    3.02330
S     2.93003   -1.70924    3.58519
C     4.26308   -0.99179    3.05836
H    -3.34485    4.35438   -4.56402
H    -3.97068    2.67466   -4.34861
H    -2.36905    2.95660   -5.15811
H    -2.94050    0.93985   -2.87318
H    -1.40304    1.16336   -3.72619
H    -4.49804   -0.27884   -2.03040
H     0.00000    0.00000    0.00000
H    -5.72236   -0.27972   -0.66854
H    -4.44894   -2.23655    1.28536
H    -5.08354   -0.57420    1.49641
H    -3.38889   -0.87304    1.88398
H    -1.69898   -1.11930   -3.67834
H    -3.48375   -1.35803   -3.59118
H    -2.41632   -2.63297   -4.24692
H    -4.41903   -2.93400   -2.06656
H    -3.40106   -3.76870   -0.84178
H    -3.32019   -4.27688   -2.55358
H    -1.53667   -5.09503   -0.27518
H     0.06113   -5.54922   -0.93527
H    -0.76081   -4.16449   -1.60272
H    -0.38761   -5.25701    1.86362
H     1.25041   -5.42870    1.13889
H     0.92851   -4.11915    2.28378
H    -2.22384   -2.38088    4.42379
H     0.00000    0.00000    0.00000
H    -1.42784   -1.01385    3.47043
H    -3.22006   -4.10100    3.11210
H    -2.74280   -4.39863    1.36190
H     0.00000    0.00000    0.00000
H     3.19762    1.23543   -4.46598
H     3.90568    2.36547   -3.28959
H     3.80652    0.63504   -2.88003
H     0.38377    3.07136   -3.11337
H     1.75387    3.30194   -4.18180
H     0.64464    1.91293   -4.45025
H     2.67220   -1.01567   -4.48454
H     1.28641   -1.70062   -5.38852
H     1.37552    0.04345   -5.19620
H     0.53878   -2.45344   -1.90461
H     1.74300   -2.91944   -3.15708
H     0.01826   -2.96355   -3.54632
H     3.77247   -1.56181   -2.62804
H     4.99774   -2.27902   -1.52463
H     3.89495   -3.33047   -2.43594
H     3.36128   -4.27754   -0.07600
H     2.71157   -3.15638    1.13073
H     4.42213   -3.00334    0.60441
H     3.94347    2.44561    0.78916
H     4.00527    2.18536   -0.96655
H     2.42940    2.08942   -0.10389
H     5.33290   -0.95630    0.24741
H     5.82039    0.73925    0.29203
H     5.21767    0.05534   -1.25453
H     0.05183    3.26765    4.65717
H    -1.63142    2.78542    5.08164
H    -1.25771    3.38206    3.44525
H    -0.78513    0.45299    5.74370
H     0.80780    1.22215    5.47605
H     0.38660   -0.32119    4.67207
H     2.20642    4.37330    2.87055
H     1.92370    4.06046    1.16506
H     0.53914    4.08450    2.32436
H     3.63013    2.27201    3.35035
H     2.48978    0.99573    3.86751
H     2.24263    2.67813    4.41228
H    -1.01718    5.58257    1.20529
H    -2.34159    4.46912    1.59440
H    -2.31796    5.29430   -0.01173
H     0.00000    0.00000    0.00000
H     0.28430    5.05226   -0.84605
H     0.71628    3.25494   -0.95727
H    -3.82150    2.13639   -0.88898
H    -5.01657    2.11007    0.40124
H    -3.92152    3.51778    0.27142
H    -2.85201    1.14461    3.05927
H    -3.29725    2.90293    2.79383
H    -4.47183    1.58846    2.57319
H     0.87335   -2.31135    3.58576
H     0.00000    0.00000    0.00000
H     4.94369   -0.82695    3.91806
H     4.03520   -0.01884    2.60398
H     4.77900   -1.64955    2.34143
