156
mol54-4
C     0.57893   -2.96704    5.04895
S     1.76691   -2.17669    4.85961
C     1.11349   -1.36221    3.21416
Si     0.53894   -0.66269    1.64185
Si    -1.07666   -2.02798    0.78141
C    -2.50576   -2.15451    1.98297
C    -3.64127   -1.34176    1.86649
C    -4.74209   -1.52815    2.70676
C    -4.70426   -2.50778    3.70038
C    -3.56121   -3.29381    3.85814
C    -2.46723   -3.11875    3.00550
C    -0.52808   -3.81722    0.64047
C     0.56125   -4.30224    1.37892
C     0.92408   -5.65024    1.31197
C     0.19479   -6.53253    0.51442
C    -0.91156   -6.07057   -0.19934
C    -1.28222   -4.72531   -0.12246
Si    -1.65473   -1.17898   -1.28227
C    -3.52666   -1.13923   -1.48802
C    -4.29834   -2.21634   -1.01866
C    -5.68106   -2.24643   -1.21848
C    -6.30801   -1.21831   -1.92243
C    -5.54955   -0.16617   -2.43565
C    -4.16694   -0.13525   -2.23395
C    -1.16875   -2.35383   -2.65053
C    -0.07027   -3.20304   -2.50015
C     0.26478   -4.12607   -3.49384
C    -0.48900   -4.18963   -4.66708
C    -1.56927   -3.32253   -4.84720
C    -1.90717   -2.40573   -3.84639
Si     2.34738   -0.66629    0.22046
C     3.06027   -2.39914    0.26150
C     3.65760   -2.84132    1.45635
C     4.23987   -4.10940    1.53556
C     4.23938   -4.94896    0.42087
C     3.65975   -4.51765   -0.77297
C     3.08215   -3.24758   -0.85317
C     3.80542    0.27228    0.89866
C     3.69877    1.02376    2.07224
C     4.79305    1.74447    2.55718
C     6.01145    1.70566    1.87508
C     6.13482    0.94092    0.71227
C     5.03779    0.22230    0.22765
Si     1.75501    0.27950   -1.80218
C     2.81183    1.79194   -2.19304
C     3.32854    2.59651   -1.17371
C     4.21180    3.64221   -1.45730
C     4.56423    3.92128   -2.77654
C     4.04582    3.14260   -3.81018
C     3.18613    2.07904   -3.52190
C     2.16931   -0.80261   -3.26949
C     3.49220   -1.24529   -3.44116
C     3.86284   -1.94841   -4.59052
C     2.93009   -2.16890   -5.60528
C     1.63210   -1.67228   -5.47614
C     1.25725   -0.98256   -4.31958
Si    -0.48984    0.79005   -1.63522
Si    -0.76635    2.34781    0.03477
C    -2.48783    3.06673   -0.02175
C    -3.58548    2.21160   -0.10686
C    -4.88908    2.71327   -0.11217
C    -5.10520    4.08882   -0.01473
C    -4.01716    4.95640    0.10498
C    -2.71369    4.44935    0.11316
C     0.34732    3.80468   -0.35404
C     0.08860    4.56518   -1.50673
C     0.82349    5.72241   -1.77733
C     1.81211    6.14571   -0.88805
C     2.07692    5.40087    0.26219
C     1.36056    4.22795    0.51805
Si    -0.44064    1.36704    2.08711
C     0.38522    2.50568    3.31421
C     0.01414    3.86171    3.34170
C     0.53251    4.71935    4.31553
C     1.38003    4.21999    5.30631
C     1.68595    2.85794    5.33872
C     1.16703    1.99979    4.36490
C    -1.97727    1.11777    3.12319
C    -3.00388    2.07624    3.12583
C    -4.06991    1.97874    4.02429
C    -4.08611    0.96455    4.98222
C    -3.02673    0.05943    5.05138
C    -1.97428    0.14222    4.13547
C    -1.19058    1.54473   -3.21521
S     0.05163    2.44800   -4.18701
C    -1.11760    2.95915   -5.48346
H    -0.44157   -2.78215    5.44358
H     0.63681   -4.00086    4.65005
H     1.31771   -2.84612    5.86767
H     0.00000    0.00000    0.00000
H     0.00000    0.00000    0.00000
H    -3.68141   -0.56285    1.13292
H    -5.61716   -0.90072    2.59773
H    -5.55224   -2.64525    4.35844
H    -3.52412   -4.04338    4.63786
H    -1.59927   -3.74789    3.14245
H     1.12158   -3.65408    2.02587
H     1.76782   -6.01194    1.88502
H     0.47936   -7.57519    0.45914
H    -1.48473   -6.75515   -0.81100
H    -2.13631   -4.39499   -0.68979
H    -3.84370   -3.02395   -0.47018
H    -6.26569   -3.06974   -0.82894
H    -7.37878   -1.24153   -2.07789
H    -6.03208    0.62613   -2.99319
H    -3.61394    0.68397   -2.64896
H     0.51647   -3.15487   -1.60614
H     1.11280   -4.78435   -3.35646
H    -0.22746   -4.89871   -5.44155
H    -2.14464   -3.35949   -5.76302
H    -2.74245   -1.74117   -4.01464
H     3.67799   -2.20463    2.33130
H     4.69091   -4.44058    2.46186
H     4.68663   -5.93247    0.48234
H     3.65975   -5.16644   -1.63931
H     2.65644   -2.94705   -1.78539
H     2.76777    1.06606    2.59595
H     4.69476    2.33426    3.45943
H     6.85955    2.26454    2.24868
H     7.07955    0.90586    0.18555
H     5.15085   -0.36585   -0.67137
H     3.05272    2.41969   -0.15441
H     4.61609    4.24172   -0.65216
H     5.23869    4.73833   -2.99719
H     4.31919    3.35449   -4.83573
H     2.81903    1.48752   -4.34803
H     4.23673   -1.05339   -2.68261
H     4.87748   -2.30834   -4.70064
H     3.21819   -2.70648   -6.49923
H     0.91578   -1.81752   -6.27432
H     0.26099   -0.58248   -4.25955
H    -3.42240    1.15718   -0.13509
H    -5.72964    2.03476   -0.17873
H    -6.11406    4.48047   -0.01452
H    -4.18372    6.02111    0.20501
H    -1.89477    5.14013    0.25278
H    -0.71745    4.29352   -2.17309
H     0.61090    6.30231   -2.66598
H     2.37761    7.04516   -1.09363
H     2.86067    5.71341    0.93998
H     1.65084    3.62760    1.36080
H    -0.66798    4.26050    2.60173
H     0.26646    5.76837    4.30911
H     1.77796    4.88292    6.06359
H     2.31032    2.46304    6.12965
H     1.36989    0.94402    4.44649
H    -2.95861    2.93852    2.48626
H    -4.86389    2.71394    4.00249
H    -4.90407    0.89699    5.68751
H    -3.01985   -0.70811    5.81441
H    -1.15607   -0.55077    4.23404
H    -1.61372    0.73447   -3.84230
H    -2.00044    2.24756   -2.93303
H    -1.55908    2.06602   -5.97271
H    -1.92258    3.58520   -5.04525
H    -0.57425    3.55453   -6.24531
