72
mol12-D-0
C         -4.49460       -3.76930        1.67450
S         -2.70890       -3.41150        1.70670
C         -2.83950       -1.78650        0.88020
C         -1.55550       -0.88570        0.58220
C         -0.29130       -1.75380       -0.02780
Ge         0.56710       -3.12710        1.17840
Ge        -0.91380       -3.17790       -1.32160
C          0.83550       -0.70640       -0.58700
Ge         2.76150       -1.27550       -0.29090
Ge         1.11000       -0.87450       -2.57100
C         -1.05310       -0.09210        1.93630
Ge        -2.50000        0.97340        2.84590
Ge        -0.85750       -1.26010        3.56160
C          0.27810        0.79360        1.58760
Ge         0.32140        2.58280        2.50680
Ge         1.89960        0.21330        2.61870
C          0.51380        0.83770       -0.04800
C         -0.86580        1.36380       -0.77650
Ge        -0.57620        1.94930       -2.68770
Ge        -1.50140        3.20610       -0.28120
C         -2.03400        0.24370       -0.54940
Ge        -2.70430       -0.51550       -2.28800
Ge        -3.87480        1.01500       -0.18740
C          1.78850        1.72070       -0.42860
S          1.78440        3.54540       -0.28900
C          3.49530        3.76940       -0.87260
H         -4.85960       -3.80190        0.62690
H         -5.05030       -2.99500        2.24320
H         -4.67310       -4.75700        2.14660
H         -3.36610       -2.00720       -0.05900
H         -3.56320       -1.22570        1.48310
H         -0.22450       -4.05300        2.12470
H          1.23050       -4.19190        0.26360
H          1.88710       -2.91970        1.92430
H         -2.39300       -3.23000       -1.76530
H          0.04360       -3.53300       -2.48300
H         -1.02500       -4.56600       -0.63450
H          3.73060       -0.37760       -1.10480
H          3.45220       -1.44140        1.07810
H          2.95500       -2.70320       -0.86400
H          2.00200        0.21390       -3.21740
H          0.00530       -1.16400       -3.58510
H          1.92970       -2.14930       -2.90290
H         -2.18820        1.14490        4.35570
H         -3.91050        0.34180        2.93350
H         -2.66030        2.48250        2.65790
H         -2.22110       -1.84370        4.01240
H         -0.44430       -0.34670        4.74420
H          0.23150       -2.33190        3.77470
H          1.76430        3.15330        2.52780
H          0.02270        2.34610        4.00960
H         -0.54140        3.82890        2.24180
H          1.78220        0.70760        4.08520
H          2.16210       -1.21880        3.08440
H          3.23800        0.87690        2.21120
H         -0.65330        0.94150       -3.85330
H         -1.73900        2.84590       -3.18530
H          0.68840        2.81910       -2.88560
H         -2.69620        3.53110       -1.21280
H         -2.29950        3.61920        0.95470
H         -0.66320        4.41790       -0.74820
H         -2.02760       -1.47320       -3.27670
H         -4.04630       -1.26760       -2.08590
H         -3.16590        0.63860       -3.21460
H         -4.95950       -0.07370        0.01500
H         -4.11250        2.11760        0.86560
H         -4.36990        1.77910       -1.44340
H          2.07910        1.52130       -1.46900
H          2.65360        1.40980        0.17110
H          3.60130        3.37820       -1.90570
H          3.73730        4.85180       -0.87310
H          4.20200        3.24460       -0.19670
