72
mol12-A-0
C         -2.32730       -0.36440        5.34050
S         -0.74630       -0.26200        4.44220
C         -1.49850       -0.10210        2.78030
C         -0.60700        0.03660        1.46300
C          0.56170        1.20480        1.58290
Ge        -0.10770        2.84810        2.55280
Ge         1.98310        0.93650        2.97180
C          1.23460        1.46280        0.10500
Ge         0.97300        3.36600       -0.47040
Ge         3.24180        1.70540        0.07340
C          0.10440       -1.39700        1.08230
Ge         1.04030       -2.31320        2.61220
Ge        -1.17160       -2.94230        0.93410
C          1.02810       -1.20270       -0.24750
Ge         2.98040       -1.58810        0.10080
Ge         0.94540       -2.76010       -1.53470
C          0.73620        0.28150       -0.94430
C         -0.88160        0.43780       -1.19920
Ge        -1.65130       -0.90040       -2.48560
Ge        -1.40490        1.93530       -2.43980
C         -1.65280        0.45810        0.23740
Ge        -3.39890       -0.56210        0.24210
Ge        -2.65450        2.18340        0.55580
C          1.53390        0.28800       -2.32730
S          1.75450        1.81920       -3.30680
C          2.70590        1.03400       -4.64680
H         -2.92020        0.55970        5.17830
H         -2.11980       -0.47080        6.42490
H         -2.90530       -1.24790        4.99820
H         -2.17460        0.75640        2.87060
H         -2.16590       -0.96920        2.69120
H         -0.89510        3.94960        1.81170
H          1.07270        3.73820        3.02110
H         -0.88310        2.53230        3.85380
H          3.21170        0.03040        2.90030
H          2.84000        2.22850        2.96670
H          1.56210        1.04570        4.45550
H          1.83860        3.88350       -1.64240
H          1.65370        4.24130        0.61300
H         -0.31250        4.19200       -0.43890
H          3.65030        3.05460        0.71950
H          3.84000        1.77180       -1.35190
H          4.17040        0.80270        0.91330
H          2.11930       -1.75900        3.55900
H          1.72920       -3.58750        2.05950
H          0.00380       -2.88990        3.61340
H         -0.39610       -4.27540        1.10980
H         -2.22820       -3.06460        2.05930
H         -1.79260       -3.40000       -0.38730
H          4.01640       -1.09130       -0.93740
H          3.61590       -1.43800        1.48440
H          3.27230       -3.11130        0.07670
H          2.00710       -2.60970       -2.65560
H          1.33630       -4.04930       -0.76670
H         -0.32330       -3.31350       -2.21190
H         -2.29110       -2.21970       -2.04840
H         -0.84750       -1.13480       -3.78810
H         -2.99020       -0.36170       -3.05670
H         -1.03210        3.42660       -2.36910
H         -1.02810        1.58230       -3.90350
H         -2.95330        1.99850       -2.48960
H         -3.58130       -2.05380       -0.09810
H         -4.18020       -0.31730        1.55960
H         -4.30010        0.00790       -0.88370
H         -2.24530        3.50600       -0.09520
H         -4.02300        2.18950       -0.17440
H         -3.11050        2.50370        2.00070
H          2.55340       -0.08640       -2.17670
H          1.07890       -0.42690       -3.02530
H          3.64140        0.59280       -4.24420
H          2.96890        1.80340       -5.40110
H          2.09770        0.24550       -5.13650
