72
mol12-E-0
C          3.60290       -4.80820       -0.45850
S          2.65710       -3.68490        0.61930
C          2.17470       -2.52840       -0.71140
C          1.27960       -1.23780       -0.42430
C          0.70190       -0.73510       -1.90700
Ge        -0.41550       -2.08580       -2.89450
Ge         2.09120       -0.81990       -3.38250
C         -0.05280        0.70830       -1.77300
Ge        -1.74580        0.91290       -2.85500
Ge         0.85470        2.12260       -2.87740
C          0.00110       -1.55310        0.57060
Ge         0.40880       -2.07770        2.47770
Ge        -0.82790       -3.35560        0.17900
C         -1.00990       -0.26620        0.53990
Ge        -1.88870        0.18020        2.31460
Ge        -2.81310       -0.73520       -0.21410
C         -0.26540        1.04250       -0.17490
C          1.21220        1.26730        0.53120
Ge         2.08500        3.03830        0.14440
Ge         1.10940        1.73230        2.48120
C          2.17670       -0.02010        0.23020
Ge         3.31710       -0.57260        1.79170
Ge         3.81990        0.45060       -0.83490
C         -1.22470        2.29480        0.07180
S         -0.96570        3.89900       -0.76970
C         -2.38790        4.73400        0.00350
H          2.94060       -5.23840       -1.23820
H          4.01610       -5.63430        0.15560
H          4.44290       -4.26270       -0.93680
H          1.67760       -3.16890       -1.45340
H          3.12060       -2.23550       -1.18130
H          0.44440       -3.29590       -3.34580
H         -0.83160       -1.50780       -4.27160
H         -1.68440       -2.82960       -2.45910
H          1.39190       -0.66780       -4.75890
H          3.17860        0.26180       -3.55210
H          2.78120       -2.20410       -3.48690
H         -2.54990        2.19060       -2.51430
H         -1.43520        1.04830       -4.36810
H         -2.74220       -0.25470       -3.00960
H          0.78070        1.65260       -4.35210
H          0.09430        3.44200       -3.14250
H          2.35320        2.39720       -2.99710
H          1.56180       -3.01980        2.88110
H         -0.79930       -2.90430        2.99550
H          0.29960       -1.13380        3.67730
H         -0.37000       -4.16950       -1.05210
H         -2.34930       -3.49140        0.42020
H         -0.30570       -4.44870        1.15060
H         -1.15960        0.65910        3.58660
H         -3.03340        1.20890        2.11710
H         -2.58010       -1.09400        2.86500
H         -3.76130        0.46120       -0.47360
H         -3.05330       -1.71350       -1.36210
H         -3.64500       -1.53950        0.81950
H          1.33840        4.18760        0.87210
H          3.47350        3.03840        0.83440
H          2.44640        3.66370       -1.21410
H          2.42340        2.43640        2.91320
H          1.23450        0.72010        3.62000
H          0.07560        2.81850        2.86740
H          4.13210        0.66960        2.23520
H          4.40720       -1.59090        1.37030
H          2.79970       -0.95640        3.19350
H          3.87200        1.63830       -1.79660
H          4.63270       -0.71220       -1.45410
H          4.90440        1.07980        0.07850
H         -1.23890        2.55290        1.13850
H         -2.26110        2.01920       -0.16640
H         -2.44000        5.77720       -0.36940
H         -3.32980        4.21100       -0.26300
H         -2.26700        4.75340        1.10660
