72
mol12-B-0
C         -3.58180       -4.81220        1.07320
S         -1.89090       -4.17120        0.85520
C         -2.39710       -2.43570        0.56420
C         -1.32800       -1.28230        0.28800
C         -0.23200       -1.67390       -0.89110
Ge         0.97970       -3.23100       -0.53210
Ge        -1.09440       -2.66960       -2.42540
C          0.64030       -0.34000       -1.29560
Ge         0.39790        0.10380       -3.23620
Ge         2.62060       -0.62830       -1.58550
C         -0.51770       -0.89120        1.66520
Ge         0.21650       -2.45970        2.69310
Ge        -1.70240       -0.42370        3.21960
C          0.58290        0.26490        1.33170
Ge         0.74490        1.67800        2.76930
Ge         2.47570       -0.33600        1.70230
C          0.34320        0.86850       -0.20170
C         -1.22430        1.34700       -0.34350
Ge        -1.74920        2.84290        0.89150
Ge        -1.61370        2.51970       -1.93370
C         -2.19780        0.04480       -0.21760
Ge        -3.88810        0.38700        0.83830
Ge        -3.29620       -0.26660       -1.88410
C          1.33400        2.11170       -0.35010
S          1.64070        2.91340       -1.96770
C          2.80540        4.15880       -1.32740
H         -3.53140       -5.90230        1.27110
H         -4.17710       -4.64240        0.15210
H         -4.07140       -4.31390        1.93560
H         -3.01290       -2.17470        1.43470
H         -3.10920       -2.49710       -0.26730
H          0.34250       -4.63930       -0.49820
H          2.23720       -3.26620        0.33560
H          1.78120       -3.46350       -1.83850
H         -1.80380       -1.91620       -3.57060
H         -2.03980       -3.80930       -1.97680
H         -0.02780       -3.38240       -3.29660
H         -0.90690        0.19380       -4.02670
H          0.88100       -1.13940       -4.02610
H          1.40670        1.08540       -3.87610
H          3.44810       -1.51700       -0.63260
H          2.88170       -1.44060       -2.88040
H          3.41800        0.68110       -1.79290
H          1.12550       -3.59980        2.20150
H          1.02370       -1.90910        3.89690
H         -0.93400       -3.24290        3.38040
H         -2.90710       -1.36460        3.46620
H         -0.91380       -0.59870        4.54510
H         -2.10690        1.00940        3.57130
H          1.06550        0.97310        4.11270
H         -0.39050        2.58080        3.28860
H          1.95300        2.61170        2.49490
H          2.82210       -0.22630        3.21030
H          2.89640       -1.80630        1.66180
H          3.63410        0.49080        1.09160
H         -2.39880        2.61970        2.25870
H         -3.00870        3.55920        0.33450
H         -0.75580        4.02660        0.99010
H         -3.13940        2.79420       -1.96550
H         -1.01440        3.93570       -1.72170
H         -1.30950        2.26720       -3.42080
H         -3.96550        0.87600        2.29750
H         -4.63460        1.58190        0.19070
H         -4.86200       -0.81550        0.73000
H         -3.97050       -1.64920       -2.06310
H         -2.84340        0.20050       -3.26880
H         -4.54190        0.65680       -1.92480
H          1.01180        2.92800        0.30950
H          2.33310        1.84340        0.01290
H          2.30400        4.79880       -0.57190
H          3.14810        4.79750       -2.16680
H          3.68710        3.66050       -0.87350
