72
mol10-A-1
C         -4.02430       -4.20140       -0.93410
S         -2.26430       -3.79040       -0.70650
C         -2.51660       -1.97920       -0.58820
C         -1.31720       -0.93250       -0.37120
C         -0.41900       -1.51910        0.90290
Si         0.31080       -3.31950        0.65640
Si        -1.47860       -2.25180        2.39010
C          0.71440       -0.42350        1.33430
Si         0.52290        0.18860        3.18450
Si         2.45040       -1.18400        1.86240
C         -0.32720       -0.79310       -1.69710
Si         0.00750       -2.49730       -2.59430
Si        -1.15550       -0.14130       -3.33860
C          1.01090        0.08300       -1.29790
Si         2.66880       -0.91040       -1.51260
Si         1.67050        1.30770       -2.67720
C          0.80040        0.78270        0.18880
C         -0.63270        1.62150        0.19470
Si        -0.77430        2.89950        1.66710
Si        -0.77520        3.11220       -1.05540
C         -1.89040        0.56780        0.03520
Si        -3.38440        1.18500       -1.07130
Si        -3.11280        0.59980        1.54710
C          2.06290        1.69030        0.59340
S          2.42440        3.31390       -0.17560
C          3.92970        3.64090        0.79690
H         -4.12810       -5.30140       -1.03130
H         -4.61330       -3.86240       -0.05670
H         -4.41290       -3.72230       -1.85660
H         -3.07020       -1.72550       -1.50280
H         -3.24490       -1.88280        0.22530
H          0.75670       -3.91510        1.92850
H          1.60020       -3.52190        0.04070
H         -0.59830       -4.34270        0.12390
H         -0.59060       -2.81780        3.41960
H         -2.28580       -1.42200        3.27290
H         -2.36020       -3.35230        1.96360
H          0.82990       -0.87720        4.15480
H          1.39980        1.28290        3.62130
H         -0.77990        0.42010        3.76050
H          2.26820       -2.17580        2.93550
H          3.36970       -0.16650        2.40070
H          3.25630       -2.01120        0.97590
H          0.94800       -3.47030       -2.05580
H          0.70570       -2.29420       -3.87500
H         -1.22280       -3.23610       -2.90500
H         -1.41450        1.25450       -3.58870
H         -2.21910       -0.92060       -3.97200
H         -0.20080       -0.26290       -4.45000
H          2.93700       -1.20650       -2.93180
H          2.78330       -2.29700       -1.13280
H          3.87810       -0.20670       -1.06390
H          0.90760        2.44110       -3.17660
H          1.87870        0.58840       -3.94380
H          3.02070        1.82430       -2.39940
H          0.38500        3.79500        1.76610
H         -1.07920        2.46750        3.02420
H         -1.95580        3.76430        1.50720
H         -2.01300        3.85880       -0.78770
H         -1.06990        2.93970       -2.45590
H          0.12140        4.26010       -0.91870
H         -4.59400        0.35780       -0.93010
H         -3.26570        1.47450       -2.49210
H         -3.86090        2.49610       -0.60360
H         -3.82920        1.88570        1.63070
H         -4.18760       -0.40100        1.49930
H         -2.64340        0.69700        2.90730
H          2.02290        1.92600        1.66320
H          2.99070        1.11740        0.45860
H          4.68800        2.85360        0.60450
H          3.68680        3.67350        1.87920
H          4.34840        4.62230        0.49420
