72
mol12-E-2
C          4.06940       -4.32800       -1.23190
S          3.79120       -2.52790       -1.25060
C          2.09180       -2.60510       -0.58240
C          1.22140       -1.28950       -0.33590
C          0.68670       -0.79900       -1.83870
Ge        -0.44130       -2.14030       -2.82710
Ge         2.10410       -0.94110       -3.28270
C         -0.03660        0.66350       -1.74490
Ge        -1.70140        0.88860       -2.86590
Ge         0.92670        2.03730       -2.85310
C         -0.08460       -1.55800        0.63670
Ge         0.27080       -2.05910        2.56050
Ge        -0.94730       -3.34740        0.25760
C         -1.06430       -0.24890        0.56310
Ge        -1.96920        0.24810        2.31110
Ge        -2.86190       -0.68900       -0.22110
C         -0.27460        1.02990       -0.15740
C          1.19290        1.23260        0.57610
Ge         2.11480        2.97600        0.17850
Ge         1.06040        1.73320        2.51550
C          2.13290       -0.08180        0.31710
Ge         3.22730       -0.63360        1.91140
Ge         3.80860        0.33250       -0.72050
C         -1.20920        2.30800        0.04800
S         -0.89510        3.89120       -0.81440
C         -2.31310        4.77190       -0.08560
H          3.98870       -4.71700       -0.19570
H          5.08850       -4.53940       -1.61520
H          3.32890       -4.83640       -1.88390
H          2.20110       -3.16130        0.35930
H          1.56030       -3.28970       -1.25340
H          0.39930       -3.37750       -3.23990
H         -0.81490       -1.57650       -4.22220
H         -1.73600       -2.84700       -2.40640
H          1.43740       -0.79660       -4.67600
H          3.21980        0.11200       -3.44720
H          2.76340       -2.34250       -3.34940
H         -2.48220        2.19020       -2.56360
H         -1.35620        0.99080       -4.37400
H         -2.72140       -0.25820       -3.02210
H          0.87240        1.54400       -4.32100
H          0.20310        3.36920       -3.15620
H          2.43330        2.27510       -2.94550
H          1.39270       -3.02060        3.00390
H         -0.96690       -2.84860        3.06620
H          0.15870       -1.09260        3.74160
H         -0.48310       -4.19260       -0.94970
H         -2.47620       -3.44380        0.46870
H         -0.47130       -4.43540        1.25820
H         -1.25570        0.73170        3.59010
H         -3.08510        1.29940        2.07220
H         -2.70170       -1.00020        2.86780
H         -3.77610        0.52450       -0.52060
H         -3.10100       -1.68090       -1.35750
H         -3.73380       -1.45600        0.80780
H          1.38040        4.15460        0.87100
H          3.48830        2.95590        0.89770
H          2.51900        3.56950       -1.18230
H          2.38120        2.41400        2.96350
H          1.13790        0.73800        3.67330
H          0.04450        2.84940        2.86150
H          4.06180        0.59680        2.35140
H          4.30180       -1.68390        1.53040
H          2.67190       -0.98120        3.30820
H          3.90850        1.50200       -1.70050
H          4.60670       -0.85910       -1.30290
H          4.88830        0.95210        0.20510
H         -1.23950        2.58460        1.10970
H         -2.24660        2.05240       -0.20750
H         -2.33300        5.80950       -0.47680
H         -3.26130        4.26630       -0.36340
H         -2.21490        4.80750        1.01930
