72
mol12-A-1
C         -3.09230        0.18960        4.89750
S         -2.58770        1.06620        3.38290
C         -1.36770       -0.19130        2.85020
C         -0.51660       -0.02320        1.50980
C          0.61900        1.17970        1.60150
Ge        -0.07340        2.80010        2.59340
Ge         2.08480        0.95200        2.95100
C          1.24380        1.46080        0.10670
Ge         0.90930        3.35620       -0.45630
Ge         3.24120        1.76410        0.02190
C          0.22740       -1.43380        1.10630
Ge         1.23130       -2.32410        2.60800
Ge        -1.00490       -3.01680        0.98820
C          1.10860       -1.20920       -0.24730
Ge         3.08030       -1.53580        0.04750
Ge         1.03840       -2.76600       -1.53600
C          0.75330        0.26680       -0.93190
C         -0.87470        0.37450       -1.14290
Ge        -1.63790       -0.98400       -2.41180
Ge        -1.47630        1.85780       -2.36500
C         -1.60730        0.36870        0.31390
Ge        -3.32090       -0.70390        0.36270
Ge        -2.65180        2.06230        0.66370
C          1.51300        0.30010       -2.33590
S          1.66070        1.83920       -3.31680
C          2.59910        1.08570       -4.68400
H         -3.51890       -0.80240        4.64130
H         -3.86640        0.78810        5.41970
H         -2.22160        0.06200        5.57370
H         -1.93890       -1.12680        2.81970
H         -0.69420       -0.30850        3.70920
H         -0.91340        3.87860        1.87670
H          1.09160        3.72460        3.03230
H         -0.80360        2.45850        3.91390
H          3.33780        0.08360        2.84410
H          2.90170        2.26930        2.92640
H          1.70080        1.04550        4.44570
H          1.72710        3.90190       -1.64970
H          1.59220        4.24970        0.61080
H         -0.39920        4.14280       -0.38810
H          3.62590        3.12380        0.66040
H          3.79850        1.85130       -1.41870
H          4.21900        0.88840        0.83410
H          2.31820       -1.73930        3.52710
H          1.94340       -3.57590        2.03360
H          0.24010       -2.93390        3.63510
H         -0.18500       -4.32610        1.13940
H         -2.02660       -3.17330        2.14100
H         -1.64710       -3.49060       -0.31720
H          4.07260       -1.00590       -1.01680
H          3.74800       -1.36910        1.41390
H          3.41750       -3.04950        0.01140
H          2.06450       -2.58130       -2.68450
H          1.48870       -4.04410       -0.78220
H         -0.23070       -3.35620       -2.18040
H         -2.22550       -2.32290       -1.96120
H         -0.86280       -1.19140       -3.73610
H         -3.00740       -0.48510       -2.94530
H         -1.14700        3.35960       -2.30030
H         -1.12850        1.51910       -3.83920
H         -3.02670        1.87410       -2.37310
H         -3.46720       -2.19980        0.02340
H         -4.07350       -0.48540        1.70140
H         -4.26890       -0.15940       -0.73700
H         -2.30040        3.39790        0.00550
H         -4.03900        2.02830       -0.02950
H         -3.07820        2.36590        2.12120
H          2.54700       -0.04340       -2.21370
H          1.06120       -0.42690       -3.02330
H          3.55790        0.67230       -4.30780
H          2.81830        1.86410       -5.44300
H          2.00200        0.28000       -5.15930
