72
mol12-B-2
C         -4.27950       -4.32210        0.49390
S         -3.57310       -2.99740       -0.53740
C         -2.27650       -2.51370        0.66160
C         -1.24450       -1.33440        0.35510
C         -0.14680       -1.71540       -0.82590
Ge         1.11370       -3.22880       -0.44830
Ge        -0.99110       -2.76500       -2.33400
C          0.68210       -0.36400       -1.26240
Ge         0.41110        0.03580       -3.20880
Ge         2.66770       -0.59880       -1.56370
C         -0.43540       -0.89370        1.71780
Ge         0.35340       -2.42010        2.76830
Ge        -1.62110       -0.43240        3.27330
C          0.62750        0.28820        1.35360
Ge         0.75870        1.73220        2.76330
Ge         2.54030       -0.24910        1.71920
C          0.35770        0.85540       -0.18860
C         -1.22440        1.28450       -0.32600
Ge        -1.78400        2.78700        0.88550
Ge        -1.66130        2.41500       -1.93430
C         -2.15750       -0.04350       -0.16770
Ge        -3.84890        0.26810        0.89600
Ge        -3.25930       -0.41870       -1.81870
C          1.30970        2.12460       -0.36850
S          1.57960        2.90450       -2.00320
C          2.71160        4.19570       -1.39600
H         -5.12660       -4.78870       -0.04880
H         -4.65420       -3.90330        1.45090
H         -3.51290       -5.09860        0.69700
H         -1.73120       -3.44270        0.87330
H         -2.82750       -2.30220        1.58570
H          0.51920       -4.65450       -0.38290
H          2.37860       -3.21030        0.40920
H          1.91140       -3.46190       -1.75690
H         -1.73180       -2.05460       -3.48690
H         -1.89850       -3.92360       -1.85640
H          0.08930       -3.46200       -3.20090
H         -0.90190        0.07210       -3.98980
H          0.92500       -1.20710       -3.97960
H          1.38510        1.03480       -3.87530
H          3.52900       -1.44440       -0.60160
H          2.94270       -1.42710       -2.84550
H          3.42410        0.72970       -1.80210
H          1.29220       -3.54170        2.29030
H          1.15340       -1.82320        3.95490
H         -0.76760       -3.22400        3.47980
H         -2.79520       -1.40390        3.54750
H         -0.81720       -0.55890        4.59510
H         -2.06540        0.99440        3.60180
H          1.11080        1.06260        4.11680
H         -0.39910        2.61050        3.27540
H          1.93610        2.69610        2.46140
H          2.89530       -0.10090        3.22190
H          3.00440       -1.70680        1.70240
H          3.66860        0.60000        1.08340
H         -2.41570        2.57030        2.26200
H         -3.06870        3.45500        0.32600
H         -0.82560        4.00130        0.95370
H         -3.19470        2.64340       -1.95830
H         -1.10290        3.85190       -1.75370
H         -1.36140        2.14370       -3.41900
H         -3.92930        0.78200        2.34640
H         -4.63590        1.42790        0.23270
H         -4.78730       -0.96460        0.81830
H         -3.89350       -1.82380       -1.96630
H         -2.83170        0.03560       -3.21570
H         -4.53240        0.46640       -1.86590
H          0.96860        2.94310        0.27850
H          2.31930        1.89300       -0.00910
H          2.19730        4.83470       -0.64830
H          3.02840        4.82840       -2.25010
H          3.61130        3.73240       -0.94050
