36
mol28-E-2
C          4.40170      -10.33590        6.92300
S          3.24870       -9.80770        5.61640
C          4.48910       -9.67240        4.28090
Si         3.74080       -9.12730        2.64470
Si         4.77710      -10.00140        0.86320
Si         3.58520       -9.55850       -0.97590
Si         1.56490       -9.63980        2.54170
Si         0.62050       -8.54730        0.83490
Si         2.21130       -7.84750       -0.56860
Si         3.38900       -6.23860        0.43690
Si         3.90500       -6.90320        2.50730
C          1.48920       -7.23090       -2.18000
S          0.40780       -5.78980       -1.87710
C         -0.05830       -5.52540       -3.61820
H          5.01260       -9.47330        7.25310
H          3.81590      -10.70160        7.79080
H          5.05790      -11.15610        6.56580
H          4.92740      -10.68010        4.13020
H          5.31170       -8.98560        4.56790
H          4.90400      -11.45780        1.01590
H          6.10900       -9.39070        0.74670
H          2.77910      -10.73400       -1.33460
H          4.49460       -9.21710       -2.07910
H          1.39460      -11.08020        2.31330
H          0.90430       -9.25310        3.79650
H         -0.30090       -9.45070        0.13120
H         -0.11160       -7.37650        1.33880
H          2.59810       -5.00140        0.50260
H          4.62210       -6.00830       -0.32910
H          5.27710       -6.48400        2.82730
H          2.96310       -6.30360        3.46330
H          2.32690       -6.91050       -2.83260
H          0.95460       -8.06160       -2.68560
H         -0.78640       -4.69060       -3.67450
H          0.83920       -5.25940       -4.21420
H         -0.52790       -6.43880       -4.03560
