36
mol28-A-1
C          0.44990       -0.83660        6.16930
S          0.87050       -2.27970        5.13990
C          1.29040       -1.33000        3.63690
Si         1.80310       -2.49050        2.26300
Si         3.59220       -3.65520        2.91580
Si         4.03220       -5.25420        1.41680
Si         2.34610       -1.33720        0.42810
Si         3.31180       -2.70490       -1.05370
Si         2.92120       -4.82420       -0.47290
Si         0.73210       -5.06110       -0.09600
Si         0.17230       -3.92980        1.74860
C          3.48410       -5.96080       -1.84380
S          3.17910       -7.69410       -1.37330
C          3.84580       -8.38210       -2.92070
H         -0.44010       -0.32160        5.75200
H          1.30390       -0.13040        6.21340
H          0.21610       -1.18140        7.19720
H          2.09970       -0.59200        3.81520
H          0.38700       -0.77920        3.30440
H          3.33290       -4.26970        4.22560
H          4.74020       -2.74210        3.00980
H          3.58770       -6.55400        1.93960
H          5.47640       -5.29050        1.14610
H          3.27860       -0.25670        0.77930
H          1.11980       -0.77110       -0.15200
H          4.76390       -2.47700       -1.05830
H          2.75980       -2.44680       -2.39130
H         -0.00570       -4.52100       -1.24680
H          0.40720       -6.48320        0.08500
H         -1.07890       -3.19850        1.50310
H         -0.00410       -4.86470        2.86880
H          2.91910       -5.71250       -2.76620
H          4.56850       -5.79970       -2.01650
H          3.26040       -8.00980       -3.78720
H          4.91200       -8.09660       -3.03700
H          3.77200       -9.48830       -2.88630
