36
mol28-B-2
C         10.12580       -4.32220       -1.12470
S          9.02650       -3.23290       -2.08220
C          7.85070       -2.97740       -0.71450
Si         6.46730       -1.85310       -1.27110
Si         7.26490        0.12470       -1.93500
Si         5.55810        1.53590       -2.24320
Si         5.38620       -2.78480       -2.98610
Si         4.03990       -1.26130       -3.91480
Si         3.65610        0.38080       -2.44380
Si         3.18540       -0.50790       -0.44230
Si         5.00120       -1.51990        0.38000
C          2.31390        1.53870       -3.07060
S          0.67040        1.16590       -2.36230
C         -0.23770        2.48570       -3.22840
H          9.57280       -5.22520       -0.79200
H         10.97320       -4.63670       -1.76760
H         10.52590       -3.78040       -0.24250
H          7.41530       -3.94900       -0.40130
H          8.36740       -2.50560        0.14690
H          7.98640       -0.05960       -3.20220
H          8.17220        0.66840       -0.91430
H          5.79080        2.32560       -3.46080
H          5.44460        2.42950       -1.08160
H          6.35120       -3.26240       -3.98660
H          4.58440       -3.90900       -2.48240
H          2.79750       -1.91320       -4.34750
H          4.71050       -0.67830       -5.08560
H          2.10830       -1.49470       -0.60500
H          2.75450        0.55110        0.48130
H          4.61940       -2.80880        0.97440
H          5.62470       -0.66240        1.39800
H          2.28280        1.51600       -4.17940
H          2.58580        2.56830       -2.76050
H          0.29650        3.45470       -3.14500
H         -0.37010        2.21210       -4.29390
H         -1.24080        2.59180       -2.76760
