36
mol28-D-0
C          9.56530       -6.23320        0.89800
S          8.66120       -6.18780       -0.68260
C          7.64030       -4.72630       -0.28320
Si         6.50910       -4.31740       -1.71540
Si         7.66320       -3.77340       -3.54960
Si         6.27630       -2.88690       -5.06240
Si         5.22080       -2.57960       -1.17330
Si         3.59340       -2.38110       -2.69310
Si         4.17160       -3.46160       -4.56230
Si         4.11090       -5.65270       -4.11260
Si         5.17100       -6.04430       -2.18400
C          2.93930       -3.00920       -5.90800
S          3.69350       -2.96710       -7.57230
C          2.18180       -2.50780       -8.47750
H         10.31360       -7.05110        0.86300
H          8.85980       -6.42790        1.73240
H         10.09240       -5.27310        1.06960
H          8.25500       -3.83660       -0.03390
H          7.00910       -4.96840        0.59610
H          8.70320       -2.79150       -3.21070
H          8.28050       -4.99070       -4.09510
H          6.38450       -1.42140       -5.03170
H          6.63340       -3.38940       -6.39670
H          6.04570       -1.36310       -1.17180
H          4.62930       -2.79010        0.15560
H          3.37210       -0.95840       -2.98870
H          2.35800       -2.98050       -2.16860
H          2.71510       -6.10070       -4.00560
H          4.79670       -6.40390       -5.17160
H          4.18710       -6.18470       -1.10110
H          5.96410       -7.27590       -2.30430
H          2.56150       -1.99000       -5.68770
H          2.07460       -3.70380       -5.87800
H          1.50440       -3.38120       -8.54100
H          2.45970       -2.20540       -9.50770
H          1.66660       -1.65790       -7.98430
