36
mol28-A-2
C          1.20780        0.09970        5.76650
S          2.20440       -0.67030        4.45000
C          0.88990       -1.78030        3.83590
Si         1.52630       -2.80440        2.40640
Si         3.26530       -4.02350        3.09430
Si         3.84380       -5.47230        1.49310
Si         2.21000       -1.48130        0.74090
Si         3.30880       -2.70080       -0.77700
Si         2.89070       -4.86620       -0.43410
Si         0.68010       -5.14070       -0.26670
Si        -0.04240       -4.19040        1.62290
C          3.57670       -5.86680       -1.85410
S          3.24960       -7.63720       -1.57690
C          4.04950       -8.17430       -3.12090
H          0.93140       -0.66160        6.52520
H          0.28980        0.55440        5.34160
H          1.80750        0.89370        6.25670
H         -0.01650       -1.22590        3.51550
H          0.60150       -2.47120        4.65420
H          2.90320       -4.76000        4.31370
H          4.39290       -3.12200        3.37040
H          3.36920       -6.81650        1.85150
H          5.30590       -5.48080        1.34270
H          3.09980       -0.43780        1.26980
H          1.03130       -0.86420        0.11590
H          4.75400       -2.47160       -0.63800
H          2.86820       -2.31760       -2.12590
H          0.03610       -4.49470       -1.41920
H          0.35430       -6.57400       -0.24900
H         -1.27540       -3.44070        1.34340
H         -0.30320       -5.22770        2.63100
H          3.08850       -5.53270       -2.79320
H          4.67020       -5.68860       -1.91900
H          3.53520       -7.72210       -3.99440
H          5.11900       -7.87770       -3.11970
H          3.98340       -9.27890       -3.19750
