36
mol28-E-1
C          5.40890       -9.81370        6.70250
S          5.14940       -8.81080        5.20500
C          3.97790       -9.95050        4.38690
Si         3.39230       -9.31710        2.71650
Si         4.63530      -10.05290        1.00610
Si         3.63310       -9.51770       -0.91950
Si         1.25460       -9.86730        2.34880
Si         0.46640       -8.68740        0.62110
Si         2.17690       -7.86560       -0.55740
Si         3.19650       -6.30040        0.66610
Si         3.50850       -7.08580        2.73510
C          1.61280       -7.16190       -2.19600
S          0.46590       -5.76620       -1.92270
C          0.17970       -5.40030       -3.68410
H          6.05170      -10.68300        6.46300
H          5.92760       -9.19440        7.46230
H          4.44140      -10.15670        7.12340
H          3.08770      -10.04020        5.04250
H          4.41800      -10.96260        4.27430
H          4.78560      -11.51320        1.08140
H          5.95460       -9.40820        1.07140
H          2.90240      -10.68440       -1.43460
H          4.64450       -9.08710       -1.89540
H          1.14940      -11.29340        2.01510
H          0.45440       -9.57610        3.54680
H         -0.34990       -9.56280       -0.23190
H         -0.34710       -7.56700        1.11470
H          2.36910       -5.08680        0.72270
H          4.49690       -5.99550        0.05280
H          4.82670       -6.65940        3.22580
H          2.45440       -6.56880        3.61950
H          2.50570       -6.78280       -2.73370
H          1.15800       -7.96950       -2.80640
H         -0.56120       -4.57900       -3.76670
H          1.12760       -5.07780       -4.16270
H         -0.21760       -6.29460       -4.20520
