36
mol28-B-0
C         10.06840       -3.90400        0.05940
S          8.92320       -2.48990        0.02810
C          7.87910       -3.17990       -1.29550
Si         6.48700       -1.99750       -1.68460
Si         7.28250       -0.03370       -2.39150
Si         5.60500        1.44090       -2.49460
Si         5.20170       -2.85400       -3.29460
Si         3.82250       -1.26570       -4.05020
Si         3.65200        0.35580       -2.51750
Si         3.35890       -0.56030       -0.49450
Si         5.21220       -1.65110        0.11590
C          2.29490        1.57200       -2.98000
S          0.72100        1.23970       -2.11160
C         -0.22360        2.60820       -2.85430
H         10.55980       -4.01890       -0.92910
H         10.84680       -3.72230        0.82840
H          9.51950       -4.83380        0.31650
H          8.48250       -3.33380       -2.21420
H          7.44340       -4.14720       -0.96960
H          7.86220       -0.21450       -3.72990
H          8.30940        0.45630       -1.46080
H          5.73900        2.24890       -3.71510
H          5.64430        2.31220       -1.31130
H          6.04050       -3.34210       -4.39860
H          4.41630       -3.96120       -2.73100
H          2.51940       -1.86540       -4.36330
H          4.38920       -0.68030       -5.27360
H          2.23590       -1.50600       -0.56240
H          3.06410        0.49230        0.48810
H          4.84760       -2.93900        0.72300
H          5.96800       -0.83780        1.07910
H          2.14860        1.57470       -4.07980
H          2.63420        2.58470       -2.68110
H          0.35090        3.55650       -2.80910
H         -0.47510        2.36280       -3.90510
H         -1.16930        2.73810       -2.28980
