72
mol38-E-2
C          3.04170       -2.63950        4.79860
S          1.91090       -1.43100        4.04310
C          2.07110       -2.11270        2.36440
Si         1.03030       -1.15050        1.14350
Si        -1.07340       -1.53850        1.21790
Si        -1.86850       -3.55470        0.66120
Si        -2.15890       -1.20950        3.14420
Si        -1.26250        0.04970       -0.36780
Si         1.01840        1.32540       -1.29830
Si        -3.53430       -0.02380       -0.63140
Si         1.21430       -1.96440       -1.12350
Si         3.28100       -1.56290       -1.91230
Si         1.24240       -4.19650       -1.32440
Si        -0.49830       -0.97360       -2.54860
Si        -2.17230       -2.36700       -3.10910
Si         0.41190       -0.73480       -4.58120
Si        -0.98180        1.37510       -1.64550
Si        -0.98710        2.28080        0.75430
Si        -2.90520        2.53430        1.90220
Si        -0.37360        4.43260        0.65850
Si         0.76010        1.09860        1.97520
Si         0.43770        1.16510        4.18920
Si         2.72020        2.19670        1.89540
C         -2.31770        2.20490       -2.66110
S         -1.52940        3.41700       -3.76340
C         -3.09320        3.95740       -4.52150
H          2.64900       -3.66820        4.65920
H          3.12190       -2.42980        5.88480
H          4.04970       -2.55650        4.34120
H          3.13120       -2.05780        2.04310
H          1.73770       -3.17100        2.34910
H         -1.35500       -4.55540        1.60660
H         -1.56410       -3.97480       -0.70240
H         -3.33270       -3.51680        0.78340
H         -3.55070       -1.64640        2.96470
H         -1.53360       -2.04190        4.18180
H         -2.20200        0.17750        3.59320
H          2.18790        0.79960       -0.60750
H          1.52510        1.18000       -2.68130
H          1.28760        2.76320       -1.07220
H         -4.11280       -1.01360        0.28710
H         -4.17810        1.26980       -0.38610
H         -3.94530       -0.34930       -1.99990
H          3.54930       -0.15940       -2.24600
H          4.25770       -2.01640       -0.91160
H          3.46240       -2.34670       -3.14280
H          0.55020       -4.57690       -2.56340
H          2.63810       -4.64990       -1.41150
H          0.64820       -4.89620       -0.18210
H         -1.59990       -3.61850       -3.62410
H         -3.07820       -2.67780       -1.99940
H         -2.96030       -1.73320       -4.17590
H         -0.42410        0.18120       -5.37060
H          1.78770       -0.22470       -4.51440
H          0.45040       -2.05030       -5.23630
H         -2.60580        3.11810        3.21690
H         -3.64510        1.28190        2.08590
H         -3.76480        3.46710        1.15960
H          1.05520        4.58560        0.35420
H         -1.17950        5.11040       -0.36720
H         -0.62530        5.05220        1.96760
H          1.60160        1.78590        4.83830
H          0.29880       -0.19470        4.72680
H         -0.74860        1.97230        4.50280
H          2.59280        3.42180        2.69780
H          3.14150        2.59790        0.54810
H          3.75780        1.34280        2.49110
H         -2.84730        1.44180       -3.26760
H         -3.02580        2.72490       -1.98360
H         -3.58900        3.10150       -5.02470
H         -3.76680        4.37950       -3.74670
H         -2.87760        4.74160       -5.27570
