72
mol38-E-0
C          2.87830       -4.00290        3.92550
S          1.63850       -3.61360        2.65220
C          2.11180       -1.86230        2.52010
Si         1.05810       -0.97240        1.25610
Si        -1.03820       -1.39630        1.34010
Si        -1.79340       -3.44890        0.86690
Si        -2.13750       -1.00640        3.24710
Si        -1.25040        0.11940       -0.31220
Si         1.01000        1.39710       -1.28870
Si        -3.51940       -0.00770       -0.57990
Si         1.26640       -1.87800       -0.97370
Si         3.32850       -1.47160       -1.77210
Si         1.33680       -4.11570       -1.07960
Si        -0.45850       -0.98090       -2.44520
Si        -2.10400       -2.42800       -2.95140
Si         0.45530       -0.81130       -4.48300
Si        -0.98930        1.39460       -1.64420
Si        -1.02120        2.40080        0.71510
Si        -2.94820        2.66680        1.84490
Si        -0.44740        4.55780        0.53000
Si         0.74280        1.30450        1.99070
Si         0.41020        1.45870        4.19880
Si         2.68240        2.43480        1.87070
C         -2.33630        2.15530       -2.69840
S         -1.56620        3.33420       -3.84860
C         -3.13670        3.81260       -4.63400
H          3.89930       -3.81020        3.53520
H          2.79390       -5.07520        4.19640
H          2.69990       -3.38800        4.83220
H          1.97500       -1.36770        3.50330
H          3.17410       -1.77670        2.21110
H         -1.26520       -4.39870        1.85560
H         -1.47570       -3.92060       -0.47670
H         -3.25850       -3.43330        0.98260
H         -3.52020       -1.47650        3.08180
H         -1.50100       -1.78220        4.32110
H         -2.20820        0.39730        3.63660
H          2.18640        0.92310       -0.57240
H          1.52500        1.20270       -2.66260
H          1.25150        2.84800       -1.12290
H         -4.08310       -0.96850        0.37790
H         -4.18810        1.28280       -0.39180
H         -3.91870       -0.39860       -1.93460
H          3.57200       -0.07880       -2.16420
H          4.30940       -1.86390       -0.74990
H          3.52940       -2.30330       -2.96760
H          0.65690       -4.56120       -2.30360
H          2.74110       -4.54620       -1.14280
H          0.75120       -4.77740        0.08950
H         -1.50640       -3.68910       -3.41100
H         -3.00850       -2.70830       -1.83250
H         -2.89930       -1.85480       -4.04670
H         -0.39440        0.05450       -5.31340
H          1.82110       -0.27320       -4.43350
H          0.52100       -2.15250       -5.08160
H         -2.66510        3.31120        3.13460
H         -3.66550        1.40960        2.07920
H         -3.82210        3.55090        1.06050
H          0.97950        4.72460        0.22410
H         -1.26160        5.17630       -0.52620
H         -0.71590        5.22750        1.81080
H          1.55980        2.12810        4.82480
H          0.29450        0.12050        4.79320
H         -0.79220        2.25600        4.47400
H          2.52900        3.69020        2.62000
H          3.10170        2.78630        0.50890
H          3.73330        1.62650        2.50550
H         -2.84910        1.35740       -3.27370
H         -3.05660        2.69020       -2.04590
H         -3.61450        2.92690       -5.10210
H         -3.82120        4.25440       -3.88010
H         -2.93270        4.56800       -5.42010
