72
mol38-C-2
C         -0.01320        1.02230       -5.25010
S         -1.26310        0.16600       -4.23960
C         -0.08140       -0.84410       -3.28600
Si        -0.96740       -1.94250       -2.05420
Si        -2.14490       -0.73820       -0.54900
Si        -0.85240        0.38400        0.88390
Si        -3.27440        0.88980       -1.58120
Si        -3.50580       -2.10770        0.61010
Si        -5.62850       -1.59750        0.13250
Si        -3.38110       -1.73480        2.80910
Si        -2.39080       -3.19480       -3.27740
Si        -1.34620       -4.16730       -4.99800
Si        -3.88520       -1.89170       -4.29930
Si        -3.42220       -4.71500       -1.98410
Si        -5.61540       -4.76320       -2.41550
Si        -2.77150       -6.78400       -2.50010
Si        -2.95500       -4.25340        0.16790
Si        -0.74380       -4.52880        0.51270
Si        -0.22960       -3.99180        2.61710
Si        -0.18030       -6.69000        0.42430
Si         0.44890       -3.30790       -0.95370
Si         2.11120       -2.22380        0.08430
Si         1.53240       -4.62270       -2.39210
C         -3.79820       -5.45690        1.32830
S         -5.60400       -5.25040        1.29410
C         -5.92260       -6.56500        2.51070
H          0.52640        0.28920       -5.88490
H         -0.52010        1.76180       -5.90300
H          0.70830        1.55500       -4.59710
H          0.47480       -1.49130       -3.99360
H          0.65570       -0.22440       -2.73610
H         -1.72350        1.18200        1.75860
H         -0.07770       -0.52690        1.72500
H          0.04360        1.29610        0.16190
H         -2.36440        1.59720       -2.49330
H         -3.76760        1.82850       -0.56330
H         -4.42870        0.38600       -2.32750
H         -6.56170       -2.62370        0.60920
H         -5.81340       -1.36850       -1.29860
H         -5.94900       -0.33330        0.81050
H         -2.00010       -1.51310        3.24600
H         -3.96180       -2.87950        3.52560
H         -4.15080       -0.52200        3.12100
H         -0.52350       -3.16960       -5.69600
H         -0.51300       -5.30080       -4.59670
H         -2.36740       -4.67460       -5.92570
H         -3.25370       -0.62250       -4.68720
H         -5.04690       -1.64810       -3.44520
H         -4.36170       -2.58510       -5.50460
H         -5.79050       -5.07060       -3.84220
H         -6.24370       -5.83400       -1.62950
H         -6.28500       -3.49260       -2.14260
H         -3.56450       -7.25150       -3.64610
H         -3.00470       -7.66940       -1.35020
H         -1.36330       -6.81330       -2.89320
H         -1.33640       -4.36050        3.51070
H          0.07880       -2.56800        2.74460
H          0.97400       -4.73950        3.00780
H         -1.12990       -7.46980        1.23040
H          1.16560       -6.83710        0.99690
H         -0.14120       -7.21900       -0.93900
H          2.42020       -2.87390        1.36470
H          1.82720       -0.80220        0.28730
H          3.31410       -2.30410       -0.75610
H          1.81620       -3.86900       -3.62170
H          2.79680       -5.05030       -1.77650
H          0.75680       -5.82360       -2.69900
H         -3.42320       -5.27560        2.35620
H         -3.53340       -6.48850        1.01810
H         -5.54210       -7.53620        2.13130
H         -7.01630       -6.64750        2.67560
H         -5.43120       -6.31930        3.47510
