72
mol38-A-1
C         -3.48250        1.55970        4.88600
S         -2.76480        0.40850        3.67380
C         -1.72930        1.66980        2.87300
Si        -0.73110        0.93690        1.46880
Si        -2.04430        0.17510       -0.20520
Si        -3.08050        1.78830       -1.35300
Si        -3.74710       -0.99280        0.64840
Si        -0.79940       -1.04880       -1.62920
Si        -1.48140       -3.17510       -1.54240
Si        -1.17000       -0.50010       -3.76310
Si         0.40310       -0.79210        2.37130
Si        -1.01190       -2.34390        3.12390
Si         1.46540       -0.17260        4.23790
Si         1.82370       -1.67550        0.87080
Si         3.94310       -1.30650        1.45570
Si         1.69190       -3.90750        0.87390
Si         1.38870       -0.76510       -1.14090
Si         1.85290        1.44130       -1.05640
Si         1.34520        2.41900       -2.99630
Si         4.05470        1.79650       -0.90720
Si         0.74540        2.41820        0.63740
Si        -0.20610        4.32670       -0.03460
Si         2.14960        3.10140        2.22860
C          2.50640       -1.46230       -2.47130
S          2.14890       -3.21800       -2.77880
C          3.42090       -3.40070       -4.06660
H         -2.68170        1.99370        5.52020
H         -4.03000        2.37150        4.36340
H         -4.19300        1.00630        5.53350
H         -1.02650        2.10020        3.61550
H         -2.37120        2.47700        2.46440
H         -3.66530        2.80230       -0.46910
H         -2.18480        2.41620       -2.32100
H         -4.16750        1.16440       -2.12100
H         -3.33590       -2.30950        1.13820
H         -4.34910       -0.22190        1.74580
H         -4.74760       -1.19580       -0.40920
H         -0.53790       -4.08190       -2.20470
H         -1.71680       -3.60580       -0.16660
H         -2.77120       -3.26100       -2.24210
H         -2.50090       -0.99330       -4.14520
H         -0.15200       -1.14670       -4.60370
H         -1.14530        0.94680       -3.98380
H         -2.22290       -1.69840        3.64980
H         -1.35520       -3.30360        2.07550
H         -0.35280       -3.09090        4.20470
H          0.54870        0.60930        5.07950
H          2.67910        0.60170        3.97820
H          1.86210       -1.38710        4.96470
H          4.34860       -2.33840        2.42080
H          4.09400       -0.00590        2.10670
H          4.79880       -1.38850        0.26330
H          2.69510       -4.45680       -0.04840
H          2.00280       -4.37800        2.23130
H          0.36580       -4.40880        0.51700
H         -0.04870        2.85990       -3.02070
H          1.61300        1.49180       -4.10460
H          2.18700        3.61410       -3.15030
H          4.31470        3.20720       -1.22860
H          4.58810        1.54400        0.43120
H          4.74910        0.94830       -1.88610
H          0.85490        5.20690       -0.54490
H         -1.18690        4.13910       -1.10230
H         -0.84250        4.98560        1.11420
H          1.42290        3.22190        3.50060
H          3.27890        2.18310        2.36800
H          2.68700        4.41490        1.84580
H          3.55940       -1.34670       -2.14230
H          2.34710       -0.88190       -3.40300
H          3.20830       -2.71430       -4.91260
H          3.41000       -4.44500       -4.44000
H          4.42400       -3.17990       -3.64610
