72
mol38-E-1
C          4.11060       -3.01640        3.66610
S          3.64060       -2.01950        2.21860
C          1.86000       -2.05810        2.58840
Si         0.88380       -1.11020        1.30450
Si        -1.22280       -1.48840        1.28310
Si        -1.99990       -3.50950        0.71880
Si        -2.39830       -1.12580        3.14960
Si        -1.32760        0.07630       -0.33350
Si         1.00160        1.32840       -1.17190
Si        -3.58440        0.00820       -0.70530
Si         1.17300       -1.95910       -0.93860
Si         3.27720       -1.57810       -1.63260
Si         1.19990       -4.19410       -1.10460
Si        -0.46410       -0.98310       -2.45940
Si        -2.11580       -2.37800       -3.07910
Si         0.54420       -0.77880       -4.44900
Si        -0.97930        1.38110       -1.61590
Si        -1.09590        2.32300        0.76710
Si        -3.06570        2.60180        1.81720
Si        -0.46800        4.47060        0.66880
Si         0.58480        1.15230        2.08840
Si         0.15640        1.25380        4.28310
Si         2.55170        2.24110        2.08690
C         -2.26060        2.20080       -2.70710
S         -1.41430        3.39280       -3.78810
C         -2.93700        3.92810       -4.62870
H          3.80350       -2.50120        4.60000
H          5.21200       -3.14650        3.67330
H          3.63100       -4.01600        3.61280
H          1.50660       -3.10930        2.59380
H          1.66670       -1.60110        3.58090
H         -1.53740       -4.49780        1.70280
H         -1.63210       -3.95150       -0.62210
H         -3.46800       -3.46380        0.76960
H         -3.78200       -1.55960        2.90970
H         -1.82770       -1.94490        4.22840
H         -2.45630        0.26800        3.57510
H          2.13390        0.80840       -0.41760
H          1.57370        1.15990       -2.52640
H          1.26650        2.76840       -0.95450
H         -4.21130       -0.96530        0.19890
H         -4.23290        1.30800       -0.51080
H         -3.93050       -0.33640       -2.08700
H          3.56810       -0.18100       -1.97400
H          4.20240       -2.02040       -0.57930
H          3.51390       -2.38120       -2.84110
H          0.56650       -4.59050       -2.36960
H          2.59600       -4.65450       -1.11740
H          0.54800       -4.87390        0.01810
H         -1.52540       -3.63940       -3.54720
H         -3.07570       -2.66810       -2.00990
H         -2.84840       -1.75720       -4.19200
H         -0.24840        0.12850       -5.29150
H          1.91760       -0.27340       -4.32350
H          0.60790       -2.10430       -5.08180
H         -2.82730        3.20420        3.13590
H         -3.81980        1.35540        1.98370
H         -3.88410        3.52670        1.02000
H          0.97450        4.61310        0.43170
H         -1.22030        5.13610       -0.40460
H         -0.77960        5.11100        1.95490
H          1.29060        1.87950        4.97820
H         -0.01490       -0.09720        4.83360
H         -1.03980        2.07050        4.52690
H          2.39170        3.47870        2.86390
H          3.03940        2.62000        0.75560
H          3.55530        1.39200        2.74470
H         -2.76400        1.43080       -3.32690
H         -2.99800        2.73390       -2.07240
H         -3.41220        3.06660       -5.14250
H         -3.64520        4.36460       -3.89380
H         -2.68160        4.69990       -5.38320
