72
mol38-C-1
C          1.22710       -0.09350       -5.42270
S          0.65020       -1.55620       -4.50380
C         -0.31190       -0.63470       -3.25840
Si        -1.12790       -1.79620       -2.03610
Si        -2.29590       -0.67410       -0.46150
Si        -0.99580        0.44400        0.96770
Si        -3.50360        0.94830       -1.41050
Si        -3.58050       -2.11900        0.69340
Si        -5.73060       -1.66040        0.29260
Si        -3.40210       -1.80820        2.89830
Si        -2.54860       -3.05470       -3.25590
Si        -1.52660       -3.94270       -5.03480
Si        -4.11090       -1.76820       -4.19420
Si        -3.49550       -4.64380       -1.98100
Si        -5.69800       -4.74660       -2.35080
Si        -2.79870       -6.67550       -2.57880
Si        -2.97900       -4.23250        0.16990
Si        -0.75130       -4.44980        0.44270
Si        -0.19160       -3.96030        2.54710
Si        -0.12620       -6.58910        0.27190
Si         0.36060       -3.14950       -1.01900
Si         2.01950       -2.04630        0.00390
Si         1.44000       -4.38680       -2.52750
C         -3.75120       -5.49550        1.31640
S         -5.56250       -5.34370        1.34020
C         -5.80560       -6.70330        2.52440
H          1.86930        0.53360       -4.77010
H          1.81870       -0.42680       -6.29950
H          0.36110        0.50130       -5.77920
H          0.38160        0.02690       -2.70130
H         -1.09740       -0.00010       -3.71680
H         -1.86420        1.18840        1.89100
H         -0.16970       -0.46730        1.75790
H         -0.14930        1.40440        0.24870
H         -2.64240        1.71030       -2.32600
H         -3.99440        1.84060       -0.35050
H         -4.66380        0.43170       -2.13850
H         -6.61820       -2.72860        0.76410
H         -5.96440       -1.39450       -1.12490
H         -6.06860       -0.42740        1.01800
H         -2.01610       -1.55720        3.30220
H         -3.92690       -2.99100        3.59560
H         -4.19820       -0.62950        3.26920
H         -0.75510       -2.89980       -5.72510
H         -0.64840       -5.06150       -4.69250
H         -2.55910       -4.45330       -5.94800
H         -3.52930       -0.46930       -4.56080
H         -5.25360       -1.58620       -3.30020
H         -4.60180       -2.43970       -5.40620
H         -5.90590       -5.01660       -3.78080
H         -6.27050       -5.85920       -1.58040
H         -6.39700       -3.50600       -2.02000
H         -3.61080       -7.13270       -3.71540
H         -2.97120       -7.60160       -1.45040
H         -1.40250       -6.64970       -3.01260
H         -1.26000       -4.38940        3.46020
H          0.07780       -2.53210        2.70940
H          1.04490       -4.68190        2.88010
H         -1.02790       -7.42140        1.08040
H          1.23970       -6.71170        0.80100
H         -0.11160       -7.07570       -1.10760
H          2.38550       -2.72450        1.25440
H          1.69930       -0.64080        0.25850
H          3.19900       -2.06430       -0.87260
H          1.66460       -3.58840       -3.74100
H          2.73420       -4.79350       -1.96170
H          0.69190       -5.60140       -2.84890
H         -3.35160       -5.33350        2.33830
H         -3.46490       -6.50870        0.96720
H         -5.40770       -7.65060        2.10460
H         -6.89110       -6.82430        2.71800
H         -5.29360       -6.47150        3.48150
