72
mol38-D-0
C         -0.50740        5.95190       -0.12910
S         -1.50670        4.80020        0.86480
C         -1.45240        3.40860       -0.31370
Si        -2.40200        1.92540        0.33010
Si        -2.14450        0.32440       -1.22960
Si        -3.07550        0.95900       -3.15470
Si         0.00300        0.05390       -1.78700
Si        -3.04950       -1.59290       -0.49950
Si        -4.32170       -2.54030       -2.07580
Si        -1.47820       -3.13590       -0.14180
Si        -1.56600        1.16730        2.28850
Si         0.57070        0.57710        2.05370
Si        -1.45500        2.75170        3.86470
Si        -2.81050       -0.56300        3.01700
Si        -3.85650        0.05270        4.89520
Si        -1.55280       -2.28450        3.68260
Si        -4.22560       -1.21170        1.38110
Si        -5.71510        0.43050        0.97830
Si        -7.15170        0.71740        2.66810
Si        -7.05700       -0.16140       -0.70160
Si        -4.61330        2.35120        0.54150
Si        -5.40370        3.35710       -1.29370
Si        -5.04690        3.82610        2.16280
C         -5.06920       -2.83710        1.77490
S         -5.93370       -2.76650        3.37210
C         -6.54140       -4.47900        3.28320
H         -1.02570        6.17790       -1.08200
H         -0.37640        6.89650        0.43710
H          0.49150        5.51380       -0.33410
H         -0.39300        3.10990       -0.44490
H         -1.85730        3.68220       -1.30910
H         -2.59900        2.30500       -3.50290
H         -4.53490        0.95210       -3.06370
H         -2.67380        0.01110       -4.20390
H          0.77330       -0.65110       -0.76190
H          0.60740        1.36790       -2.04740
H          0.05910       -0.74890       -3.01700
H         -5.01490       -1.54940       -2.90180
H         -5.29200       -3.45200       -1.45450
H         -3.44820       -3.31320       -2.97020
H         -1.99360       -4.16400        0.77330
H         -1.13330       -3.75830       -1.42790
H         -0.25830       -2.54020        0.39930
H          0.69790       -0.80180        1.58660
H          1.22790        1.50040        1.11750
H          1.22650        0.66440        3.36630
H         -2.73490        3.42410        4.08660
H         -1.03730        2.11780        5.12350
H         -0.43660        3.74240        3.49000
H         -2.87920        0.00320        5.99200
H         -4.31920        1.43700        4.80310
H         -4.97390       -0.83360        5.23480
H         -0.47580       -2.59650        2.74230
H         -2.41490       -3.46230        3.85760
H         -0.93750       -1.93810        4.97180
H         -8.10560        1.76560        2.27830
H         -6.49690        1.14530        3.90420
H         -7.89970       -0.52610        2.89730
H         -8.25990        0.68240       -0.65820
H         -7.44150       -1.57090       -0.54070
H         -6.41460        0.03950       -1.99840
H         -4.28790        3.87590       -2.09590
H         -6.21010        2.45410       -2.12020
H         -6.25870        4.48120       -0.88680
H         -4.13170        4.97120        2.11470
H         -6.41810        4.31940        1.97040
H         -5.00210        3.18900        3.47800
H         -4.29780       -3.63370        1.80570
H         -5.79590       -3.06110        0.96770
H         -7.13570       -4.69940        4.19350
H         -5.68640       -5.18500        3.23270
H         -7.18910       -4.60820        2.39120
