72
mol38-A-0
C         -3.52740        3.01210        4.16160
S         -2.83440        2.74900        2.50010
C         -1.72430        1.40580        3.01810
Si        -0.72790        0.75380        1.57350
Si        -2.04360        0.07320       -0.13320
Si        -3.09390        1.73830       -1.19050
Si        -3.73600       -1.14820        0.66430
Si        -0.79760       -1.06660       -1.62440
Si        -1.46690       -3.19850       -1.64700
Si        -1.18020       -0.40860       -3.72500
Si         0.42010       -1.01350        2.37930
Si        -0.98280       -2.61130        3.05470
Si         1.48660       -0.48680        4.27190
Si         1.83950       -1.80830        0.82900
Si         3.95920       -1.45780        1.42420
Si         1.72060       -4.03810        0.71510
Si         1.39090       -0.79580       -1.13040
Si         1.84260        1.40580       -0.93160
Si         1.32120        2.48110       -2.81540
Si         4.04300        1.76580       -0.77250
Si         0.73660        2.28550        0.81550
Si        -0.22870        4.22110        0.24860
Si         2.14350        2.89250        2.43500
C          2.50700       -1.41540       -2.49990
S          2.15840       -3.15460       -2.89800
C          3.42600       -3.26160       -4.19860
H         -4.02880        2.08760        4.51630
H         -2.72220        3.29870        4.86970
H         -4.27420        3.83080        4.11630
H         -2.32180        0.57060        3.43750
H         -1.02110        1.77840        3.79090
H         -3.68080        2.70090       -0.25220
H         -2.20580        2.42170       -2.12760
H         -4.18040        1.14920       -1.98610
H         -3.31510       -2.48630        1.08260
H         -4.33790       -0.43970        1.80310
H         -4.73970       -1.30120       -0.39860
H         -0.52090       -4.06360       -2.35980
H         -1.69410       -3.70240       -0.29490
H         -2.75910       -3.25520       -2.34530
H         -2.50990       -0.88900       -4.12740
H         -0.16200       -1.00400       -4.60240
H         -1.16480        1.04800       -3.86940
H         -2.19520       -2.00160        3.61850
H         -1.32490       -3.51650        1.95860
H         -0.31480       -3.41010        4.09210
H          0.56900        0.24430        5.15700
H          2.69470        0.30750        4.04850
H          1.89340       -1.73540        4.93220
H          4.37470       -2.53660        2.33210
H          4.10520       -0.19240        2.14230
H          4.81030       -1.47180        0.22590
H          2.72320       -4.53200       -0.23880
H          2.03990       -4.57740        2.04460
H          0.39600       -4.52780        0.33740
H         -0.07530        2.91430       -2.81120
H          1.58980        1.61510       -3.97200
H          2.15540        3.68770       -2.90950
H          4.29340        3.19300       -1.02010
H          4.58340        1.44640        0.54880
H          4.73810        0.97450       -1.79730
H          0.82510        5.13320       -0.21870
H         -1.21280        4.08390       -0.82370
H         -0.86410        4.81470        1.43300
H          1.42140        2.94160        3.71440
H          3.27870        1.97490        2.52160
H          2.67170        4.22750        2.11980
H          3.56070       -1.31100       -2.16940
H          2.34050       -0.78770       -3.39910
H          3.20590       -2.53300       -5.00650
H          3.41960       -4.28500       -4.62640
H          4.42960       -3.05730       -3.77080
