72
mol40-A-2
C          3.30200        2.23760       -4.88800
S          2.71270        0.91450       -3.78690
C          1.70100        2.02120       -2.76000
Si         0.83320        1.07740       -1.39530
Si        -0.27950       -0.70770       -2.20310
Ge        -1.80090       -0.10770       -3.84300
Ge         1.17710       -2.12610       -3.29970
Si        -1.32480       -1.76300       -0.50830
Ge        -3.61010       -1.58610       -0.83840
Ge        -0.92470       -4.04210       -0.54080
Si         2.47560        0.34240       -0.04450
Ge         3.59970        2.13910        0.87730
Ge         4.10690       -0.77320       -1.25180
Si         1.60720       -0.97310        1.55320
Ge         2.37810       -0.36290        3.65010
Ge         2.32400       -3.15720        1.31300
Si        -0.63950       -0.88990        1.46390
Si        -1.28100        1.26430        1.62190
Ge        -0.45410        2.20220        3.56420
Ge        -3.57700        1.46740        1.84820
Si        -0.56710        2.38930       -0.19550
Ge         0.50160        4.35930        0.38090
Ge        -2.42060        3.08320       -1.39810
C         -1.22980       -1.89200        2.93130
S         -3.03660       -2.08630        2.91330
C         -3.09170       -3.06800        4.44430
H          3.86370        2.99700       -4.30510
H          3.97710        1.79910       -5.65090
H          2.44300        2.71740       -5.40150
H          2.34740        2.79410       -2.29700
H          0.93320        2.51500       -3.38990
H         -1.03920        0.48960       -5.05250
H         -2.52200       -1.39590       -4.31400
H         -2.87930        0.88720       -3.36670
H          2.07050       -2.91490       -2.32250
H          2.05450       -1.29520       -4.26950
H          0.34190       -3.14570       -4.11450
H         -4.43540       -1.85040        0.44210
H         -4.01100       -2.65190       -1.88940
H         -3.99430       -0.21870       -1.43900
H         -0.69950       -4.54920        0.90550
H         -2.17870       -4.74640       -1.11730
H          0.27560       -4.42430       -1.43790
H          2.75390        2.87570        1.93470
H          4.00300        3.12160       -0.25080
H          4.88040        1.60850        1.56960
H          5.48960       -0.34290       -0.69990
H          4.01710       -2.30990       -1.10720
H          4.03380       -0.37600       -2.74660
H          3.52880       -1.32630        4.03620
H          2.95390        1.07150        3.68540
H          1.24890       -0.50720        4.69960
H          1.54640       -4.06080        2.30250
H          2.13850       -3.67680       -0.12620
H          3.83450       -3.21380        1.65430
H         -1.18050        3.55030        3.80070
H         -0.75000        1.24910        4.74930
H          1.05860        2.48480        3.47800
H         -3.91320        2.97800        1.92770
H         -4.37990        0.86840        0.67520
H         -4.02020        0.80320        3.17570
H          1.74490        4.55750       -0.52160
H          0.90700        4.40370        1.87250
H         -0.47790        5.53360        0.13030
H         -2.97760        4.35040       -0.70180
H         -3.55030        2.03420       -1.35810
H         -2.09550        3.45270       -2.86380
H         -0.74770       -2.89020        2.89290
H         -0.92030       -1.37130        3.86000
H         -4.14580       -3.33070        4.66740
H         -2.68150       -2.47820        5.29050
H         -2.50680       -4.00300        4.31910
