72
mol40-B-0
C         -2.78250        5.12220       -3.33280
S         -1.69880        4.38020       -2.07370
C         -2.08720        2.66710       -2.54040
Si        -1.15910        1.44630       -1.46660
Si         1.05690        1.53720       -1.84070
Ge         1.49870        1.09300       -4.06420
Ge         1.94000        3.65330       -1.51690
Si         2.06660        0.04850       -0.49170
Ge         3.57910       -1.25210       -1.66860
Ge         3.37390        1.14180        1.06890
Si        -1.56960        1.76690        0.73210
Ge        -3.84860        1.98240        1.06560
Ge        -0.68470        3.73450        1.57100
Si        -0.73600        0.03740        1.90520
Ge        -2.49570       -1.12020        2.86000
Ge         0.51250        0.74530        3.72030
Si         0.53890       -1.24560        0.55190
Si        -0.76810       -2.21240       -1.00480
Ge        -2.20820       -3.79610       -0.11650
Ge         0.53530       -3.42440       -2.47780
Si        -1.91060       -0.59380       -2.07450
Ge        -1.77470       -0.86460       -4.37100
Ge        -4.17580       -0.75170       -1.63840
C          1.51890       -2.51530        1.51710
S          0.42570       -3.55540        2.53110
C          1.77890       -4.55560        3.22290
H         -2.45480        4.81430       -4.34760
H         -2.72240        6.22700       -3.25580
H         -3.83340        4.80680       -3.16510
H         -1.80110        2.49540       -3.59780
H         -3.17480        2.48560       -2.42030
H          2.97270        1.47350       -4.35310
H          1.31450       -0.39810       -4.40850
H          0.56560        1.96080       -4.94580
H          1.31740        4.62840       -2.54720
H          3.46300        3.57340       -1.79110
H          1.75410        4.22000       -0.09550
H          4.99960       -0.68490       -1.42110
H          3.33600       -1.22080       -3.19520
H          3.54240       -2.71300       -1.15650
H          2.80010        2.52950        1.42340
H          4.77730        1.36940        0.45280
H          3.51770        0.26510        2.33820
H         -4.45090        2.82850       -0.08440
H         -4.56160        0.61390        1.15060
H         -4.07530        2.71620        2.41150
H         -0.87180        4.93380        0.61270
H          0.80310        3.58740        1.94560
H         -1.43780        4.05640        2.88640
H         -3.48830       -1.63800        1.80020
H         -3.26230       -0.14040        3.78400
H         -1.97570       -2.29000        3.73060
H         -0.46130        1.31120        4.78450
H          1.25600       -0.47860        4.31300
H          1.53780        1.84890        3.38390
H         -3.59490       -3.72150       -0.80170
H         -1.61050       -5.19110       -0.42920
H         -2.34880       -3.72720        1.41980
H          1.49420       -4.33370       -1.66890
H          1.34310       -2.51460       -3.42410
H         -0.39900       -4.30880       -3.34160
H         -1.67240        0.51340       -5.06970
H         -0.59380       -1.76370       -4.80330
H         -3.07370       -1.55870       -4.85260
H         -4.46460       -1.34060       -0.24240
H         -4.80060       -1.71810       -2.67600
H         -4.84030        0.63910       -1.79210
H          2.07790       -3.15010        0.80000
H          2.23700       -1.98030        2.17180
H          2.32270       -5.07750        2.40810
H          2.48060       -3.90810        3.78890
H          1.35300       -5.31240        3.91280
