72
mol40-B-2
C         -4.00270        4.07990       -3.51160
S         -3.66270        2.70890       -2.36480
C         -1.85590        2.85080       -2.50190
Si        -0.99440        1.57320       -1.43870
Si         1.22690        1.56880       -1.79170
Ge         1.66930        1.13800       -4.01770
Ge         2.20190        3.63750       -1.42780
Si         2.15500        0.01580       -0.45670
Ge         3.61810       -1.33470       -1.63980
Ge         3.49560        1.02520        1.13200
Si        -1.41090        1.87950        0.76100
Ge        -3.68090        2.19360        1.07750
Ge        -0.44580        3.79220        1.63760
Si        -0.66790        0.09670        1.91480
Ge        -2.48740       -0.99370        2.83620
Ge         0.59400        0.72000        3.75150
Si         0.56040       -1.22280        0.55350
Si        -0.77430       -2.10590       -1.02930
Ge        -2.29320       -3.63540       -0.17810
Ge         0.48680       -3.35390       -2.50910
Si        -1.83190       -0.42130       -2.08420
Ge        -1.68650       -0.66380       -4.38330
Ge        -4.10590       -0.48240       -1.67070
C          1.47250       -2.55000        1.50780
S          0.32350       -3.55420        2.49610
C          1.62330       -4.62500        3.18450
H         -3.56340        5.02150       -3.12130
H         -5.10030        4.20800       -3.60660
H         -3.57930        3.85380       -4.51240
H         -1.53560        3.85930       -2.17070
H         -1.54900        2.69600       -3.55640
H          3.16170        1.45530       -4.28770
H          1.42100       -0.33790       -4.38630
H          0.78500        2.06040       -4.89410
H          1.63410        4.65500       -2.44860
H          3.72230        3.49240       -1.68960
H          2.02840        4.19080        0.00040
H          5.06050       -0.83640       -1.37110
H          3.39140       -1.26970       -3.16790
H          3.51030       -2.79980       -1.15050
H          2.98200        2.43220        1.50260
H          4.91380        1.19780        0.53200
H          3.58740        0.12410        2.38900
H         -4.23320        3.08320       -0.06480
H         -4.45610        0.85780        1.13520
H         -3.88690        2.91680        2.43240
H         -0.56910        5.01280        0.69610
H          1.03020        3.57190        2.02310
H         -1.19600        4.12850        2.95100
H         -3.49220       -1.45000        1.75990
H         -3.21750        0.00610        3.76820
H         -2.02940       -2.19880        3.69350
H         -0.36320        1.31380        4.81560
H          1.27550       -0.54510        4.33200
H          1.67150        1.78070        3.44110
H         -3.66840       -3.48770       -0.87430
H         -1.75640       -5.05140       -0.50680
H         -2.44510       -3.58300        1.35780
H          1.39570       -4.31790       -1.70570
H          1.34400       -2.46790       -3.43420
H         -0.47840       -4.18200       -3.39440
H         -1.51510        0.71830       -5.06000
H         -0.54350       -1.60920       -4.81890
H         -3.01090       -1.29090       -4.88690
H         -4.43450       -1.07820       -0.28640
H         -4.76400       -1.40380       -2.72850
H         -4.70520        0.93930       -1.80910
H          2.00890       -3.19880        0.78610
H          2.20780       -2.05800        2.17700
H          2.15070       -5.15900        2.36680
H          2.34820       -4.01870        3.76660
H          1.15690       -5.37190        3.85900
