72
mol40-E-2
C         -4.30430       -1.85320       -9.86340
S         -4.58350       -1.02290       -8.26870
C         -3.95600       -2.41070       -7.27530
Si        -4.06630       -1.96010       -5.47320
Si        -6.08630       -1.56290       -4.90880
Ge        -7.62850       -3.27610       -5.12610
Ge        -7.18850        0.18200       -5.95760
Si        -5.29240       -1.17060       -2.84190
Ge        -2.53930       -1.41180       -2.39190
Ge        -7.27960       -0.67880       -1.67740
Si        -3.90520       -3.89740       -4.06230
Ge        -4.94390       -5.74410       -4.99660
Ge        -1.71050       -4.66810       -3.99290
Si        -4.71850       -3.41230       -1.82400
Ge        -6.84640       -4.24570       -1.37940
Ge        -3.46280       -4.73410       -0.39080
Si        -4.17200       -0.94630       -1.36140
Si        -4.14120        1.08540       -2.91420
Ge        -5.99120        2.49230       -3.00260
Ge        -2.52410        2.54500       -2.12250
Si        -3.36680        0.30310       -5.07920
Ge        -1.05180        0.47290       -5.24010
Ge        -3.98970        1.72040       -6.80110
C         -4.73600       -0.42390        0.35410
S         -3.30540        0.15390        1.32660
C         -4.24210        0.54360        2.83880
H         -4.62520       -1.17890      -10.68340
H         -3.22590       -2.08430       -9.98920
H         -4.89810       -2.78960       -9.91480
H         -4.56690       -3.31870       -7.45720
H         -2.89610       -2.61560       -7.53040
H         -7.65860       -3.71920       -6.61050
H         -9.02030       -2.69610       -4.76940
H         -7.42830       -4.51260       -4.23250
H         -7.20430       -0.09700       -7.48170
H         -8.65320        0.17430       -5.45160
H         -6.64810        1.60110       -5.70810
H         -1.81360       -1.81090       -3.68670
H         -1.91060       -2.50420       -1.47900
H         -1.61430       -0.21990       -1.99610
H         -7.44370       -1.54490       -0.40600
H         -8.48490       -0.91850       -2.62110
H         -7.36700        0.76340       -1.12820
H         -5.68120       -5.36160       -6.30330
H         -5.89880       -6.40560       -3.97260
H         -3.85580       -6.78290       -5.36900
H         -1.17010       -4.76240       -5.44170
H         -0.73160       -3.82390       -3.14150
H         -1.73020       -6.09260       -3.38310
H         -6.88110       -5.75170       -1.73970
H         -7.10290       -4.11070        0.14280
H         -7.99500       -3.52360       -2.12060
H         -3.77460       -4.33700        1.07360
H         -3.89670       -6.20660       -0.60230
H         -1.93970       -4.65750       -0.65990
H         -5.70500        3.63930       -4.00340
H         -7.30830        1.78690       -3.40090
H         -6.18730        3.11250       -1.59610
H         -1.08710        2.03670       -2.39710
H         -2.73180        2.75020       -0.60090
H         -2.69650        3.90310       -2.84880
H         -0.26230       -0.07230       -4.02550
H         -0.58450       -0.25990       -6.52260
H         -0.69640        1.97510       -5.37520
H         -4.69620        2.97810       -6.23770
H         -4.87400        0.98010       -7.83420
H         -2.71000        2.18670       -7.54040
H         -5.25570       -1.26270        0.86150
H         -5.43150        0.43280        0.26520
H         -4.68030       -0.38030        3.26440
H         -3.55150        0.98430        3.58630
H         -5.04410        1.27770        2.61770
