72
mol40-C-0
C          5.41130       -3.34900       -1.76130
S          4.97430       -1.82970       -2.66380
C          3.18170       -1.90620       -2.33340
Si         2.28400       -0.46000       -3.11680
Si         2.43940       -0.48790       -5.36670
Ge         4.58900       -0.07490       -6.11150
Ge         1.93160       -2.58860       -6.19740
Si         1.06580        1.08300       -6.20340
Ge         2.17670        2.39310       -7.75500
Ge        -0.65280        0.12820       -7.41760
Si         0.11360       -0.70880       -2.55910
Ge        -0.11060       -1.00040       -0.27340
Ge        -0.72910       -2.66650       -3.45100
Si        -1.08360        1.06570       -3.24480
Ge        -2.98830        0.42870       -4.39390
Ge        -1.88520        2.18220       -1.38430
Si         0.22390        2.36010       -4.54950
Si         1.92010        3.20480       -3.32670
Ge         3.33800        4.41300       -4.69400
Ge         1.20280        4.76310       -1.76880
Si         3.02750        1.51990       -2.31930
Ge         5.31410        1.80000       -2.57700
Ge         2.72840        1.59210       -0.02930
C         -0.74720        3.71440       -5.40210
S         -1.62880        4.74910       -4.19510
C         -2.36710        5.83860       -5.45130
H          5.11340       -3.25960       -0.69580
H          6.50870       -3.49890       -1.81690
H          4.90850       -4.22220       -2.22290
H          2.72310       -2.84690       -2.70040
H          3.03060       -1.85540       -1.23670
H          4.59790       -0.23820       -7.65240
H          5.02810        1.36920       -5.79220
H          5.59230       -1.08890       -5.51090
H          3.02680       -2.98100       -7.22090
H          0.56820       -2.63190       -6.92600
H          1.94600       -3.62640       -5.04800
H          1.36040        3.68170       -8.02500
H          3.61080        2.75690       -7.31040
H          2.28900        1.58490       -9.07230
H         -1.34250       -1.01570       -6.64820
H         -0.05740       -0.46090       -8.72130
H         -1.68910        1.22070       -7.78220
H         -1.49560       -1.64210       -0.00670
H          0.99160       -1.95740        0.24480
H         -0.06390        0.33550        0.50170
H         -2.12090       -2.92750       -2.82190
H         -0.90260       -2.58240       -4.98090
H          0.21860       -3.83720       -3.08790
H         -2.93040       -1.03910       -4.87720
H         -4.19650        0.55330       -3.43170
H         -3.21360        1.38390       -5.59240
H         -2.80350        1.20700       -0.60530
H         -0.74380        2.60560       -0.43750
H         -2.73350        3.40920       -1.79830
H          2.53010        5.03870       -5.85850
H          4.50030        3.54640       -5.22390
H          3.96340        5.55360       -3.85210
H         -0.31350        4.71480       -1.48210
H          1.48140        6.16910       -2.35800
H          2.01850        4.63690       -0.45840
H          5.94860        0.89270       -3.65250
H          5.98240        1.40390       -1.23620
H          5.64710        3.28900       -2.84360
H          3.85320        2.46910        0.57630
H          2.84410        0.16090        0.55270
H          1.38370        2.24210        0.35900
H         -1.47600        3.24340       -6.09300
H         -0.04090        4.33980       -5.98530
H         -3.01070        5.24890       -6.13690
H         -1.56920        6.34880       -6.03020
H         -2.98910        6.60470       -4.94490
