36
mol56-A-1
C          2.30630       -0.90060       -2.48520
S          2.59460       -0.14540       -0.85330
C          4.39920        0.05730       -1.04410
Ge         5.20560        0.87230        0.53650
Ge         6.95450        2.37840       -0.10000
Ge         7.51990        3.74450        1.78150
Ge         6.09540       -0.76020        2.04620
Ge         7.42470        0.35970        3.69030
Ge         6.76160        2.65580        3.76930
Ge         4.37480        2.76720        3.83440
Ge         3.52830        2.12820        1.68980
C          7.52100        3.52540        5.33190
S          6.92390        2.69070        6.83560
C          7.83690        3.77710        7.97510
H          1.21330       -0.97350       -2.65850
H          2.75410       -0.28080       -3.28930
H          2.73400       -1.92220       -2.50930
H          4.88940       -0.91450       -1.25950
H          4.57890        0.73240       -1.90560
H          6.47060        3.27520       -1.26740
H          8.20980        1.58050       -0.53260
H          9.05650        3.93620        1.84250
H          6.81470        5.11880        1.65760
H          6.97900       -1.77050        1.27140
H          4.92270       -1.49950        2.73860
H          8.92050        0.27930        3.29390
H          7.20300       -0.29810        5.07580
H          3.85380        1.78670        4.91550
H          3.92610        4.21340        4.16380
H          3.19320        3.39680        0.86530
H          2.25720        1.26050        1.87040
H          7.20670        4.58970        5.33660
H          8.62750        3.46180        5.27410
H          7.63180        3.46130        9.01850
H          7.50640        4.82890        7.84660
H          8.92760        3.70000        7.78430
