36
mol56-E-0
C         -3.32500       -0.77260       14.24850
S         -2.53060       -0.86240       12.61170
C         -1.38870       -2.22570       13.02530
Ge        -0.29520       -2.66350       11.47640
Ge         1.27880       -4.36110       12.07080
Ge         2.89250       -4.56900       10.31620
Ge         0.90420       -0.72520       10.75070
Ge         1.93750       -1.19270        8.64400
Ge         2.01840       -3.56180        8.33200
Ge        -0.20650       -4.36420        7.97300
Ge        -1.63800       -3.47040        9.66890
C          3.17610       -3.99040        6.82820
S          2.50740       -3.24390        5.30250
C          3.82150       -3.85620        4.19910
H         -2.58150       -0.46680       15.01360
H         -4.13660       -0.01750       14.21540
H         -3.76050       -1.75460       14.52170
H         -1.92290       -3.13450       13.37200
H         -0.71560       -1.88640       13.83880
H          0.52850       -5.70520       12.24850
H          1.99300       -3.97220       13.38990
H          3.18520       -6.06820       10.05480
H          4.19640       -3.83630       10.72120
H          1.99310       -0.38440       11.79910
H         -0.07440        0.46630       10.59560
H          1.10020       -0.56320        7.50180
H          3.37520       -0.61480        8.62960
H         -0.20560       -5.91180        8.04960
H         -0.71030       -3.89980        6.58290
H         -2.58790       -4.58200       10.18200
H         -2.46350       -2.29310        9.09100
H          4.17660       -3.55430        7.02590
H          3.28650       -5.09170        6.74770
H          3.57310       -3.58170        3.15350
H          3.90510       -4.95960        4.27040
H          4.79080       -3.38990        4.47220
