36
mol56-D-1
C         -7.83540       11.28520       -3.58430
S         -6.46950       10.20000       -3.06000
C         -5.12780       11.23770       -3.73560
Ge        -3.40570       10.40530       -3.37790
Ge        -1.60360       11.78750       -4.12780
Ge         0.45690       10.90230       -3.29420
Ge        -3.16710       10.05530       -1.02540
Ge        -1.27380        8.64360       -0.64110
Ge         0.10480        8.64190       -2.59440
Ge        -1.03440        7.46860       -4.33840
Ge        -3.27720        8.28890       -4.48530
C          1.78930        7.75520       -2.19300
S          2.85990        7.76620       -3.67170
C          4.25690        6.88600       -2.90200
H         -7.76710       12.26020       -3.05860
H         -8.80000       10.80400       -3.32290
H         -7.80180       11.44800       -4.68010
H         -5.23660       11.41290       -4.82610
H         -5.15020       12.22030       -3.22170
H         -1.58360       11.79100       -5.67740
H         -1.79840       13.23030       -3.59720
H          1.52120       10.93980       -4.42000
H          0.93490       11.73980       -2.08120
H         -4.44320        9.37670       -0.46640
H         -2.94470       11.42300       -0.33170
H         -0.46480        9.17740        0.56800
H         -1.75370        7.19690       -0.36150
H         -1.05440        5.95200       -4.02060
H         -0.29840        7.72100       -5.67840
H         -4.24040        7.29550       -3.78770
H         -3.67260        8.45430       -5.97450
H          1.57080        6.70190       -1.92280
H          2.26790        8.24600       -1.32010
H          4.59210        7.41510       -1.98700
H          3.95400        5.85000       -2.64430
H          5.09960        6.84490       -3.62200
