108
mol58-E-0
C          3.87840       -4.81280        2.29960
S          3.09040       -3.80390        1.00670
C          1.87980       -3.04600        2.13110
Ge         0.70280       -1.79280        1.19630
Ge        -1.49900       -2.40880        1.92450
C         -2.03300       -4.07540        1.05320
C         -0.98150       -5.16240        1.22540
C         -1.44870       -2.64810        3.86360
C         -2.51070       -3.63530        4.33280
Ge        -3.08360       -0.69870        1.35310
C         -4.67410       -1.59700        0.65640
C         -5.76860       -0.60750        0.28410
C         -3.54400        0.39450        2.91210
C         -4.48380       -0.32090        3.87200
Ge         0.79450       -1.81100       -1.21470
C          0.75430       -3.65140       -1.87430
C          1.03960       -3.71840       -3.36740
C          2.35430       -0.84520       -1.89370
C          3.66030       -1.51850       -1.51040
Ge        -1.13380       -0.65060       -2.04510
C         -2.43610       -1.96440       -2.67780
C         -3.68950       -1.29730       -3.22120
C         -0.64320        0.53790       -3.51830
C         -0.31610       -0.23760       -4.78610
Ge        -2.04150        0.71400       -0.29140
Ge        -0.26460        1.96030        0.75360
C         -1.05630        3.26520        1.98010
C         -1.51430        4.52640        1.25580
C          0.71000        2.90680       -0.65440
C          1.83580        3.77410       -0.10350
Ge         1.15400        0.43160        1.96730
C          0.71630        0.47880        3.87150
C          1.42940        1.61480        4.59370
C          3.03860        0.89080        1.71160
C          3.97000       -0.09360        2.40520
C         -3.27570        1.97110       -1.12980
S         -4.40260        2.69120        0.10570
C         -5.29290        3.72580       -1.09700
H          3.13550       -5.50250        2.75170
H          4.30960       -4.15700        3.08450
H          4.69380       -5.41140        1.84440
H          2.39480       -2.50890        2.95240
H          1.26070       -3.84590        2.58250
H         -2.99760       -4.41510        1.48430
H         -2.18120       -3.88500       -0.02590
H         -0.78050       -5.34860        2.29990
H         -0.03800       -4.86800        0.72380
H         -1.34430       -6.10430        0.76340
H         -1.60680       -1.66260        4.34700
H         -0.44680       -3.02120        4.16000
H         -2.59280       -3.59410        5.43910
H         -3.49910       -3.39580        3.88920
H         -2.23220       -4.66830        4.04210
H         -5.05380       -2.29130        1.43490
H         -4.39550       -2.19500       -0.23360
H         -6.67610       -1.16250       -0.03270
H         -6.02980        0.03540        1.14920
H         -5.44030        0.03170       -0.55730
H         -2.61520        0.66960        3.44670
H         -4.03460        1.32410        2.56460
H         -5.40260       -0.65800        3.35170
H         -3.98100       -1.19000        4.33150
H         -4.77740        0.37560        4.68510
H         -0.24810       -4.08170       -1.67190
H          1.51280       -4.25140       -1.33460
H          2.03720       -3.28920       -3.59350
H          0.26480       -3.16720       -3.93480
H          1.02830       -4.77800       -3.69790
H          2.34070        0.18660       -1.49300
H          2.28690       -0.79040       -2.99860
H          4.50460       -1.00020       -2.01120
H          3.81260       -1.44920       -0.41750
H          3.65960       -2.58290       -1.82420
H         -1.97350       -2.57440       -3.47890
H         -2.70830       -2.63800       -1.84550
H         -4.23350       -0.79030       -2.40330
H         -3.43210       -0.55940       -4.00900
H         -4.35850       -2.06750       -3.65900
H         -1.49200        1.22550       -3.71620
H          0.23740        1.14050       -3.22280
H          0.55080       -0.90620       -4.61790
H         -1.18880       -0.83910       -5.11310
H         -0.05660        0.47460       -5.59710
H         -0.31100        3.54830        2.74750
H         -1.92250        2.79520        2.48560
H         -2.09440        4.27610        0.34770
H         -0.64370        5.14350        0.95730
H         -2.15250        5.13180        1.93290
H         -0.01320        3.54600       -1.20280
H          1.13150        2.17140       -1.36380
H          2.71470        3.15210        0.14670
H          1.51690        4.32820        0.80160
H          2.14910        4.50630       -0.87690
H          1.00860       -0.48910        4.33000
H         -0.37790        0.60350        3.97970
H          2.52110        1.42790        4.63380
H          1.25140        2.58100        4.08350
H          1.05010        1.68640        5.63460
H          3.26660        0.90360        0.62710
H          3.20960        1.90520        2.12790
H          5.00920        0.29500        2.37110
H          3.68010       -0.23960        3.46530
H          3.95220       -1.06990        1.88660
H         -3.86260        1.44500       -1.90670
H         -2.68120        2.77230       -1.61520
H         -5.77020        3.08740       -1.86950
H         -6.08110        4.29890       -0.56730
H         -4.59210        4.43930       -1.57830
