108
mol58-A-0
C         -0.86210       -0.10440       -7.20490
S         -0.72650        0.72270       -5.58970
C         -0.74790       -0.82230       -4.63210
Ge        -0.61800       -0.45520       -2.71900
Ge        -2.56980        0.74390       -2.03310
C         -2.33430        2.57900       -2.67120
C         -3.65160        3.32710       -2.79250
C         -4.07670       -0.09660       -2.95900
C         -5.41930        0.21500       -2.31520
Ge        -2.65190        0.69090        0.37590
C         -3.11150        2.47520        1.03050
C         -4.61930        2.68230        1.08210
C         -3.97870       -0.59400        1.02320
C         -3.89620       -0.77550        2.53160
Ge         1.32430        0.84910       -2.14960
C          2.93670       -0.22180       -2.41610
C          3.06510       -0.67960       -3.86030
C          1.41300        2.45140       -3.26880
C          2.72170        3.20280       -3.07770
Ge         1.19210        1.48490        0.16660
C          0.67210        3.36410        0.30250
C          0.55120        3.80210        1.75300
C          2.96200        1.21050        0.96050
C          3.96430        2.24510        0.47140
Ge        -0.47810        0.11620        1.24170
Ge        -0.01860       -2.18370        0.72840
C         -1.14440       -3.32700        1.84320
C         -0.71680       -4.78490        1.76070
C          1.86380       -2.59250        1.05030
C          2.25260       -2.29340        2.48880
Ge        -0.53440       -2.56670       -1.58030
C          0.85250       -3.66050       -2.41610
C          0.86730       -5.07570       -1.85560
C         -2.26650       -3.46930       -1.67640
C         -2.57880       -3.95400       -3.08480
C         -0.60860        0.32540        3.18580
S          0.90180        1.02940        3.91110
C          0.27110        1.00590        5.61770
H          0.00770       -0.77520       -7.36410
H         -0.87380        0.66400       -8.00480
H         -1.80340       -0.69040       -7.25590
H         -1.70330       -1.34480       -4.82770
H          0.09090       -1.47660       -4.94020
H         -1.66870        3.11920       -1.97330
H         -1.84710        2.55270       -3.66570
H         -4.30790        2.83310       -3.53850
H         -4.16230        3.37320       -1.81150
H         -3.45520        4.36510       -3.13340
H         -4.07680        0.26440       -4.00890
H         -3.92800       -1.19370       -2.97390
H         -5.54070       -0.37590       -1.38920
H         -6.23560       -0.07320       -3.01000
H         -5.51690        1.29390       -2.08560
H         -2.65620        3.23130        0.35970
H         -2.69170        2.60970        2.04810
H         -5.08700        2.41180        0.11430
H         -5.06620        2.06040        1.88450
H         -4.84000        3.74790        1.30150
H         -3.82170       -1.56920        0.52230
H         -4.99090       -0.22100        0.77400
H         -2.94420       -1.26470        2.80810
H         -4.73090       -1.42290        2.87260
H         -3.97040        0.20340        3.04900
H          2.89990       -1.10400       -1.74950
H          3.82510        0.38220       -2.14470
H          3.03600        0.19040       -4.54920
H          2.24570       -1.38060       -4.11190
H          4.03110       -1.20950       -3.99580
H          0.56470        3.11890       -3.01700
H          1.33270        2.15270       -4.33170
H          2.74200        4.08470       -3.75190
H          3.58430        2.55070       -3.32620
H          2.81490        3.56080       -2.03470
H          1.42690        3.99400       -0.20790
H         -0.30060        3.50650       -0.20240
H         -0.25360        3.23110        2.25890
H          1.51240        3.64460        2.28530
H          0.29450        4.88120        1.79390
H          3.32410        0.19740        0.69550
H          2.89510        1.28200        2.06080
H          4.10290        2.16350       -0.62370
H          3.62260        3.26910        0.72790
H          4.94500        2.06870        0.96090
H         -2.19660       -3.23290        1.50500
H         -1.07280       -2.98680        2.89650
H          0.32300       -4.90560        2.12860
H         -1.38770       -5.40240        2.39390
H         -0.78440       -5.15070        0.71700
H          2.04760       -3.66420        0.83930
H          2.48800       -1.99140        0.36290
H          3.30630       -2.59810        2.65960
H          1.60000       -2.85120        3.19260
H          2.16590       -1.20820        2.68580
H          0.66450       -3.69760       -3.50940
H          1.83960       -3.18770       -2.24210
H          1.63670       -5.67470       -2.38630
H         -0.11840       -5.56460       -1.99400
H          1.11790       -5.06200       -0.77730
H         -3.05580       -2.76810       -1.34220
H         -2.25690       -4.33870       -0.98890
H         -3.54440       -4.50160       -3.08030
H         -1.78700       -4.63810       -3.45150
H         -2.66920       -3.09760       -3.77780
H         -1.46500        0.99210        3.41140
H         -0.79680       -0.66890        3.63720
H          1.05030        1.40870        6.29660
H         -0.63700        1.63920        5.69770
H          0.03220       -0.03440        5.92210
