108
mol58-D-1
C         -3.75170        3.91980       -3.68310
S         -2.91050        3.54500       -2.11400
C         -2.00920        2.10690       -2.77370
Ge        -0.88980        1.29330       -1.39650
Ge        -1.56590        2.12600        0.74940
C         -1.14390        4.03290        0.76750
C         -1.90760        4.77100        1.85750
C         -3.47050        1.87240        1.11950
C         -4.34270        2.41220       -0.00190
Ge        -0.31990        0.97480        2.44580
C         -1.48590       -0.39180        3.21800
C         -2.40190        0.18780        4.28630
C          0.18410        2.29200        3.80330
C          1.11650        1.70690        4.85040
Ge        -0.96830       -1.10960       -1.39240
C         -0.61920       -1.73090       -3.22130
C         -0.75030       -3.24080       -3.38210
C         -2.72030       -1.58370       -0.65410
C         -3.50350       -2.53710       -1.54030
Ge         0.79030       -1.90650        0.03740
C          0.13650       -3.32220        1.21340
C         -0.30760       -4.54180        0.42200
C          2.22190       -2.59950       -1.10140
C          3.40810       -3.08970       -0.28710
Ge         1.57640       -0.11000        1.42440
Ge         2.73550        1.51070        0.08800
C          4.41700        0.80990       -0.62030
C          5.43360        0.54700        0.48180
C          3.07500        3.04220        1.25650
C          3.99830        4.07250        0.62200
Ge         1.35070        2.04760       -1.79790
C          2.09660        1.15680       -3.36860
C          1.19480        1.31780       -4.58420
C          1.30260        3.97630       -2.09820
C          2.51880        4.44640       -2.88720
C          2.79930       -0.82820        2.76650
S          1.88170       -1.70750        4.06770
C          3.36830       -2.15960        5.01410
H         -3.00400        4.15320       -4.46950
H         -4.37300        3.05590       -3.99880
H         -4.40880        4.80170       -3.53930
H         -1.36140        2.41420       -3.62000
H         -2.73380        1.35380       -3.14170
H         -1.40430        4.46540       -0.22130
H         -0.05600        4.15550        0.93120
H         -1.72310        4.30650        2.84660
H         -2.99600        4.75750        1.64330
H         -1.57100        5.82820        1.89310
H         -3.71870        2.40720        2.05900
H         -3.67940        0.79440        1.27160
H         -4.06270        3.45740       -0.24930
H         -4.23870        1.77550       -0.89980
H         -5.40660        2.39300        0.31450
H         -2.09710       -0.83320        2.40560
H         -0.87060       -1.19460        3.66760
H         -2.97940        1.04380        3.88490
H         -1.80800        0.52550        5.16060
H         -3.11360       -0.59320        4.62650
H         -0.73870        2.65330        4.30160
H          0.67360        3.15700        3.31400
H          0.68180        0.78510        5.28900
H          1.27010        2.44740        5.66310
H          2.10110        1.48260        4.39820
H         -1.30550       -1.22260       -3.92790
H          0.41910       -1.44130       -3.47670
H         -0.34300       -3.77560       -2.50280
H         -1.80960       -3.52640       -3.53220
H         -0.18790       -3.56530       -4.28280
H         -2.58420       -2.03730        0.34810
H         -3.30630       -0.65080       -0.54100
H         -4.52720       -2.66290       -1.12930
H         -3.01730       -3.53260       -1.55810
H         -3.58660       -2.12970       -2.56940
H         -0.71550       -2.93520        1.80780
H          0.95050       -3.61390        1.90830
H         -0.65800       -5.32920        1.12180
H          0.53790       -4.94690       -0.17190
H         -1.14330       -4.27550       -0.25430
H          1.82730       -3.44170       -1.70330
H          2.55220       -1.80290       -1.79540
H          4.12450       -3.61130       -0.95570
H          3.07730       -3.79770        0.50110
H          3.93220       -2.23130        0.17310
H          4.21480       -0.12820       -1.17480
H          4.83270        1.55230       -1.33340
H          5.63230        1.46980        1.06370
H          5.06870       -0.24100        1.16610
H          6.38680        0.20220        0.02920
H          2.11220        3.52320        1.51010
H          3.53650        2.66460        2.19300
H          4.91440        3.59610        0.21870
H          4.29730        4.81810        1.38820
H          3.47410        4.61090       -0.18850
H          3.09500        1.59030       -3.58560
H          2.22860        0.08130       -3.14420
H          1.02100        2.39080       -4.80420
H          1.67560        0.84620       -5.46660
H          0.21980        0.82130       -4.40990
H          1.26770        4.49010       -1.11670
H          0.37940        4.23120       -2.65950
H          2.56090        5.55570       -2.87840
H          3.45520        4.04700       -2.44570
H          2.44940        4.10780       -3.94090
H          3.38950        0.00370        3.19990
H          3.49130       -1.54230        2.28510
H          3.06530       -2.74830        5.90380
H          3.89730       -1.24430        5.35220
H          4.04630       -2.77670        4.38840
