36
mol56-A-2
C          3.12920       -0.39650       -3.25330
S          4.07750        0.77230       -2.22800
C          3.98620       -0.19830       -0.68410
Ge         4.91030        0.69470        0.78610
Ge         6.53420        2.23650       -0.06110
Ge         7.22740        3.68190        1.71550
Ge         5.99940       -0.85660        2.25000
Ge         7.43860        0.36040        3.72370
Ge         6.70320        2.63450        3.79880
Ge         4.33110        2.66830        4.09170
Ge         3.30670        1.93130        2.05900
C          7.57670        3.57990        5.25400
S          7.15730        2.77560        6.83260
C          8.13520        3.92880        7.84560
H          3.18880       -0.07400       -4.31280
H          3.54660       -1.42110       -3.16860
H          2.06530       -0.39230       -2.94470
H          2.93250       -0.39950       -0.40090
H          4.48740       -1.17170       -0.86120
H          5.90830        3.07780       -1.20210
H          7.77040        1.46710       -0.58960
H          8.75470        3.92650        1.62160
H          6.46400        5.02710        1.62000
H          6.84080       -1.86190        1.42340
H          4.92620       -1.61140        3.07440
H          8.89150        0.31690        3.18660
H          7.37480       -0.25840        5.14290
H          3.95220        1.70720        5.24670
H          3.86380        4.10890        4.42010
H          2.84820        3.16020        1.23380
H          2.09120        1.02810        2.38760
H          7.22590        4.63270        5.25780
H          8.67420        3.55130        5.09110
H          8.04270        3.64080        8.91280
H          7.75590        4.96410        7.71870
H          9.20470        3.88180        7.55230
