36
mol56-B-1
C         -5.49080        0.55370        0.39460
S         -5.01050        2.29580        0.62110
C         -3.81140        2.35190       -0.75460
Ge        -2.98620        4.11370       -0.92190
Ge        -3.12530        5.30210        1.15160
Ge        -2.61980        7.60710        0.75560
Ge        -4.18070        5.36420       -2.57450
Ge        -2.93220        7.33380       -3.10870
Ge        -1.42550        7.78370       -1.30830
Ge         0.30970        6.14040       -1.33660
Ge        -0.69030        3.98140       -1.59080
C         -0.65950        9.55930       -1.49520
S         -1.99400       10.79730       -1.46550
C         -0.87470       12.21950       -1.65850
H         -6.07950        0.44260       -0.53710
H         -6.12450        0.24230        1.24990
H         -4.59430       -0.09930        0.35920
H         -4.29080        2.06710       -1.71390
H         -3.00840        1.61790       -0.53940
H         -4.55740        5.17550        1.72970
H         -2.09670        4.73170        2.15970
H         -3.93530        8.41890        0.64700
H         -1.74840        8.15640        1.91320
H         -4.36440        4.50350       -3.85000
H         -5.56290        5.76570       -2.00040
H         -2.11570        7.09890       -4.40470
H         -3.89950        8.53010       -3.29480
H          1.27040        6.41210       -2.52180
H          1.08440        6.20040        0.00410
H         -0.62180        3.54630       -3.07640
H          0.06090        2.95860       -0.70130
H         -0.11120        9.61250       -2.45860
H          0.04290        9.73580       -0.65420
H         -0.16160       12.26200       -0.80890
H         -0.31620       12.13870       -2.61420
H         -1.47420       13.15270       -1.67080
