36
mol56-A-0
C          3.40400       -1.51870       -2.81390
S          4.56110       -1.24530       -1.43430
C          3.86310        0.35640       -0.90390
Ge         4.82240        1.08970        0.63070
Ge         6.44370        2.69800       -0.08800
Ge         7.18270        3.95150        1.81160
Ge         5.92490       -0.60920        1.90890
Ge         7.40210        0.44260        3.46960
Ge         6.68840        2.70240        3.78830
Ge         4.32260        2.72290        4.12930
Ge         3.25390        2.20230        2.05290
C          7.59730        3.48970        5.31420
S          7.20040        2.53280        6.81130
C          8.20720        3.57080        7.91640
H          3.54790       -2.54680       -3.20400
H          2.35380       -1.41060       -2.47270
H          3.61450       -0.80090       -3.63100
H          3.86740        1.08920       -1.73700
H          2.81010        0.18730       -0.59920
H          5.80410        3.65470       -1.12580
H          7.66290        1.97750       -0.71550
H          8.71010        4.19380        1.71310
H          6.42960        5.30470        1.86740
H          6.74170       -1.53150        0.96870
H          4.86070       -1.43610        2.67360
H          8.84430        0.44360        2.90270
H          7.35940       -0.31620        4.82010
H          3.95680        1.65250        5.18850
H          3.87420        4.12600        4.61060
H          2.79090        3.51150        1.36510
H          2.03670        1.27890        2.31230
H          7.25590        4.53920        5.43110
H          8.69120        3.47020        5.12790
H          8.13210        3.17710        8.95070
H          7.83480        4.61640        7.90220
H          9.27060        3.54640        7.59900
