36
mol56-B-2
C         -5.42250        0.34210       -0.78820
S         -4.89480        1.91520       -1.53930
C         -3.83620        2.45250       -0.15220
Ge        -3.00390        4.18290       -0.50720
Ge        -2.90880        5.49100        1.49560
Ge        -2.40910        7.75760        0.91410
Ge        -4.34180        5.36300       -2.10040
Ge        -3.12290        7.27030       -2.87510
Ge        -1.43140        7.78880       -1.26770
Ge         0.26450        6.10810       -1.37550
Ge        -0.79160        3.96100       -1.39780
C         -0.65970        9.53320       -1.63680
S         -1.96350       10.80050       -1.54460
C         -0.84700       12.18380       -1.93470
H         -4.57020       -0.36460       -0.75430
H         -6.22320       -0.10290       -1.41330
H         -5.82010        0.50920        0.23420
H         -3.05490        1.69650        0.06990
H         -4.47710        2.55990        0.74640
H         -4.27550        5.42990        2.22330
H         -1.79110        4.95640        2.42550
H         -3.71530        8.59110        0.89230
H         -1.41400        8.35270        1.94210
H         -4.67020        4.43490       -3.29720
H         -5.65060        5.82770       -1.41310
H         -2.44850        6.94330       -4.23140
H         -4.08460        8.47540       -3.03220
H          1.10210        6.28990       -2.66650
H          1.17430        6.22750       -0.12670
H         -0.88390        3.44010       -2.85420
H          0.03040        2.97430       -0.53040
H         -0.21290        9.51880       -2.65260
H          0.12850        9.74180       -0.88380
H         -0.04940       12.25890       -1.16640
H         -0.39150       12.03580       -2.93600
H         -1.42920       13.12790       -1.94120
