36
mol56-C-1
C         -7.75190        0.87500        8.97450
S         -7.29930        0.35220        7.29090
C         -5.58170       -0.06510        7.72700
Ge        -4.65470       -0.70740        6.14510
Ge        -2.39160       -1.26340        6.67830
Ge        -1.44590       -2.46250        4.83660
Ge        -4.65780        0.97010        4.44110
Ge        -3.13950        0.30810        2.71410
Ge        -2.76140       -2.04760        2.87810
Ge        -4.88950       -3.11860        3.11330
Ge        -5.74280       -2.66050        5.30090
C         -1.87270       -2.66130        1.25150
S         -0.62930       -3.95050        1.60730
C         -0.09700       -4.19520       -0.11740
H         -7.62860        0.02930        9.68280
H         -7.11680        1.72770        9.29300
H         -8.81360        1.19620        8.98050
H         -5.05600        0.83470        8.10860
H         -5.56710       -0.86270        8.49860
H         -1.59400        0.04400        6.91500
H         -2.35560       -2.14750        7.95040
H          0.00920       -1.98650        4.59740
H         -1.46120       -3.98150        5.14290
H         -4.20580        2.32600        5.04030
H         -6.08790        1.09480        3.85780
H         -1.79060        1.04890        2.89600
H         -3.74880        0.64470        1.32960
H         -4.77200       -4.65000        2.91320
H         -5.85730       -2.53330        2.05400
H         -5.43700       -3.85490        6.23970
H         -7.27150       -2.41820        5.22390
H         -1.34880       -1.79430        0.79980
H         -2.62700       -3.02600        0.52390
H          0.80070       -4.84650       -0.12660
H         -0.90000       -4.69670       -0.69350
H          0.16190       -3.22500       -0.58980
