72
mol66-C-0
C          3.20300        5.70250       -1.49950
S          1.52800        5.66390       -0.78780
C          0.97880        4.14970       -1.64400
Ge        -0.85400        3.71020       -1.15350
Ge        -1.33960        1.60050       -2.18450
Si        -1.31760        1.83880       -4.48040
Si         0.31670        0.06510       -1.69380
Ge        -3.47720        0.79830       -1.46370
Si        -4.69450        0.03710       -3.27650
Si        -3.22930       -1.03080       -0.07800
Ge        -1.09380        3.48830        1.22370
Si        -0.42400        5.37810        2.37780
Si         0.25720        1.78110        1.99010
Ge        -3.38980        3.03470        1.72420
Si        -3.57900        1.26910        3.20340
Si        -4.33660        4.84890        2.79220
Ge        -4.59480        2.56410       -0.29200
Ge        -4.64710        4.53530       -1.66180
Si        -5.97860        6.13680       -0.66050
Si        -5.61700        4.14430       -3.72380
Ge        -2.40950        5.34380       -1.97440
Si        -2.00120        5.74920       -4.21560
Si        -2.17690        7.36600       -0.88010
C         -6.38390        2.02930        0.24910
S         -7.42660        1.75460       -1.21430
C         -8.90460        1.30210       -0.25460
H          3.75600        4.77950       -1.22780
H          3.14510        5.79860       -2.60130
H          3.74690        6.57970       -1.09400
H          1.63060        3.31220       -1.32210
H          1.04670        4.23570       -2.74810
H         -0.21250        2.72870       -4.86520
H         -1.13000        0.51640       -5.09420
H         -2.59420        2.39030       -4.94000
H          0.19730       -0.41640       -0.31460
H          1.63180        0.69150       -1.89010
H          0.18020       -1.08240       -2.60230
H         -5.99440       -0.47060       -2.81590
H         -4.89410        1.09220       -4.27130
H         -3.95080       -1.06220       -3.90820
H         -3.07210       -2.23580       -0.90490
H         -4.42390       -1.16120        0.76910
H         -2.03330       -0.87850        0.75340
H          1.02530        5.56440        2.22290
H         -0.72550        5.18410        3.80340
H         -1.13500        6.56950        1.90870
H         -0.41570        0.49000        1.83200
H          0.52890        1.99430        3.41880
H          1.51970        1.78950        1.23670
H         -3.20320        1.73530        4.54590
H         -2.68780        0.16780        2.82740
H         -4.97190        0.79950        3.21860
H         -4.03790        4.76400        4.22900
H         -5.79180        4.83210        2.58420
H         -3.75930        6.09150        2.27040
H         -5.29730        6.75100        0.48260
H         -6.28020        7.18540       -1.64560
H         -7.22880        5.50630       -0.21250
H         -5.87380        5.44130       -4.36630
H         -6.89080        3.43010       -3.57690
H         -4.70750        3.39020       -4.58670
H         -2.77190        4.83360       -5.06280
H         -0.57270        5.55930       -4.50270
H         -2.39450        7.12980       -4.53110
H         -2.87690        7.32190        0.40640
H         -0.76030        7.67840       -0.65640
H         -2.78660        8.42020       -1.70310
H         -6.30930        1.09490        0.84310
H         -6.81790        2.83510        0.87670
H         -9.20850        2.14670        0.39840
H         -9.73390        1.07290       -0.95440
H         -8.69770        0.40400        0.36390
