72
mol66-A-1
C         -3.02430        3.44610        4.39230
S         -1.34640        2.83600        4.75340
C         -0.73100        2.95510        3.04150
Ge         1.12390        2.37310        2.94340
Ge         1.96020        2.59900        0.70640
Si         1.01790        1.04080       -0.71420
Si         1.38080        4.66950       -0.14020
Ge         4.33920        2.31520        0.71470
Si         4.99220        0.84220       -0.94080
Si         5.33620        4.33630        0.20070
Ge         1.42270        0.10290        3.66130
Si         0.09080       -1.38550        2.49080
Si         0.81180       -0.10420        5.87790
Ge         3.72980       -0.48120        3.37520
Si         4.56280       -1.50420        5.27280
Si         3.97850       -2.02980        1.68070
Ge         5.02160        1.46780        2.85390
Ge         4.63920        3.13040        4.53410
Si         5.10260        2.26120        6.62150
Si         6.03940        4.95350        4.28520
Ge         2.35240        3.82470        4.40350
Si         2.22370        5.99590        3.63030
Si         1.38470        3.85060        6.50240
C          6.88280        0.90600        2.83280
S          7.94690        2.28030        2.30040
C          9.49040        1.32630        2.43260
H         -2.97560        4.43260        3.88780
H         -3.58210        3.55680        5.34440
H         -3.55730        2.72110        3.74290
H         -1.33730        2.28160        2.40220
H         -0.81090        3.98300        2.63130
H          1.52530        1.27380       -2.07400
H         -0.44440        1.18260       -0.71070
H          1.39260       -0.31290       -0.29680
H         -0.04950        4.90510        0.10440
H          1.64320        4.68090       -1.58650
H          2.17310        5.73050        0.48960
H          4.99310        1.54710       -2.23070
H          4.05580       -0.28420       -1.02400
H          6.34560        0.35160       -0.64210
H          5.18450        4.57540       -1.24170
H          6.76540        4.31880        0.53440
H          4.66360        5.42620        0.91080
H         -0.47210       -0.76160        1.28940
H          0.86920       -2.57680        2.12590
H         -1.02350       -1.80150        3.35450
H         -0.34760        0.75930        6.14510
H          0.46130       -1.50620        6.14670
H          1.92780        0.27500        6.74770
H          4.16010       -0.78390        6.48380
H          6.02970       -1.55270        5.18890
H          4.02990       -2.87240        5.34450
H          3.01890       -1.76380        0.60600
H          3.71390       -3.37130        2.22030
H          5.35240       -1.96620        1.16150
H          5.39320        3.36810        7.54410
H          6.26960        1.37200        6.52700
H          3.94390        1.52290        7.12990
H          5.75230        5.91380        5.36070
H          7.43790        4.51560        4.39530
H          5.82400        5.61760        2.99760
H          3.27390        6.24100        2.63850
H          2.42560        6.91520        4.75940
H          0.89850        6.22240        3.03550
H          1.91320        4.99970        7.25150
H         -0.07230        3.98480        6.36260
H          1.70070        2.62660        7.24400
H          7.16570        0.58020        3.85510
H          6.98600        0.05420        2.12920
H         10.34260        1.97570        2.14570
H          9.63730        0.98130        3.47720
H          9.45830        0.45240        1.74900
