72
mol66-C-1
C          3.57520        4.02240       -1.75790
S          2.08970        3.14350       -1.17970
C          0.90070        4.46580       -1.58610
Ge        -0.91050        3.93010       -1.11100
Ge        -1.30640        1.83970       -2.21680
Si        -1.29910        2.16080       -4.50280
Si         0.41570        0.36080       -1.78210
Ge        -3.40600        0.92050       -1.52460
Si        -4.59260        0.17270       -3.36300
Si        -3.07650       -0.94460       -0.20540
Ge        -1.13590        3.61310        1.25680
Si        -0.54620        5.48750        2.47760
Si         0.28910        1.93960        1.96090
Ge        -3.40920        3.04290        1.74140
Si        -3.51910        1.21890        3.15640
Si        -4.43150        4.77510        2.87420
Ge        -4.59650        2.59310       -0.28990
Ge        -4.73660        4.60800       -1.58810
Si        -6.13420        6.11350       -0.52950
Si        -5.69260        4.24950       -3.66240
Ge        -2.53670        5.52320       -1.87230
Si        -2.15060        6.02590       -4.09770
Si        -2.38970        7.51310       -0.70630
C         -6.35980        1.96240        0.23240
S         -7.39240        1.69540       -1.23950
C         -8.84770        1.14530       -0.29610
H          3.48390        4.25950       -2.83820
H          3.71520        4.95440       -1.17630
H          4.46070        3.37220       -1.60650
H          0.93200        4.63710       -2.68130
H          1.13880        5.42370       -1.07950
H         -0.23420        3.11090       -4.85580
H         -1.05570        0.87060       -5.16360
H         -2.59920        2.67260       -4.94190
H          0.31980       -0.17450       -0.42110
H          1.70210        1.05010       -1.95640
H          0.32720       -0.75820       -2.73110
H         -5.86850       -0.40700       -2.92050
H         -4.83960        1.25310       -4.31930
H         -3.80330       -0.87010       -4.03400
H         -2.86890       -2.11140       -1.07500
H         -4.26270       -1.15690        0.63690
H         -1.88660       -0.77060        0.63050
H          0.89340        5.74180        2.32900
H         -0.83640        5.22970        3.89540
H         -1.30900        6.66310        2.05180
H         -0.32760        0.62710        1.75690
H          0.55410        2.11310        3.39630
H          1.54870        2.02950        1.20780
H         -3.16120        1.65260        4.51470
H         -2.58180        0.17140        2.74090
H         -4.89030        0.68920        3.15530
H         -4.12660        4.65170        4.30690
H         -5.88500        4.70280        2.66620
H         -3.90940        6.05940        2.39710
H         -5.47790        6.71530        0.63460
H         -6.48280        7.18260       -1.47620
H         -7.35510        5.41380       -0.10400
H         -6.00650        5.55640       -4.25790
H         -6.93410        3.47600       -3.54080
H         -4.75310        3.56690       -4.55210
H         -2.88260        5.10870       -4.97680
H         -0.71570        5.90840       -4.39190
H         -2.60380        7.39870       -4.36330
H         -3.08460        7.39280        0.57810
H         -0.98740        7.87830       -0.47210
H         -3.04590        8.56880       -1.49070
H         -6.24380        1.01140        0.79250
H         -6.82710        2.72570        0.88860
H         -9.18660        1.95200        0.38680
H         -9.66770        0.90560       -1.00350
H         -8.60100        0.23540        0.28970
