72
mol68-D-1
C          9.74160       -5.78480        0.09970
S          8.28180       -6.21490       -0.89950
C          7.86140       -4.50740       -1.38110
Ge         6.27900       -4.48100       -2.51630
Ge         5.68750       -2.23870       -3.13600
Ge         7.49740       -1.24170       -4.33580
Ge         5.28380       -0.84140       -1.23490
Ge         3.71170       -2.28430       -4.49000
Ge         4.00970       -0.89010       -6.41300
Ge         1.88740       -1.35310       -3.25940
Ge         4.40130       -5.55550       -1.47990
Ge         5.05320       -7.70770       -0.66120
Ge         3.61470       -4.30310        0.40150
Ge         2.64910       -5.78110       -3.10410
Ge         0.55260       -5.01170       -2.24410
Ge         2.32780       -8.08140       -3.66630
Ge         3.19820       -4.55210       -5.08700
Ge         5.11170       -5.57380       -6.10960
Ge         5.89280       -4.30190       -7.97790
Ge         4.55220       -7.75340       -6.92210
Ge         6.86930       -5.70720       -4.48840
Ge         8.89360       -4.82990       -5.41150
Ge         7.31690       -7.98250       -3.91070
C          1.62990       -4.63270       -6.23780
S          1.91380       -3.68560       -7.77060
C          0.28280       -4.01480       -8.50940
H         10.49160       -5.26330       -0.52680
H          9.44470       -5.13760        0.95080
H         10.19430       -6.71600        0.49720
H          7.63260       -3.93280       -0.46070
H          8.69460       -3.99720       -1.90730
H          7.48860        0.28500       -4.07020
H          7.32850       -1.47170       -5.85510
H          8.83490       -1.84610       -3.83840
H          4.97090        0.58740       -1.74690
H          4.06240       -1.32660       -0.42340
H          6.54540       -0.77020       -0.33970
H          4.31120       -1.71660       -7.68360
H          2.69120       -0.11430       -6.66000
H          5.14580        0.12980       -6.14920
H          2.18160        0.14250       -2.98060
H          0.59200       -1.48380       -4.09990
H          1.71500       -2.09110       -1.91350
H          4.50940       -8.84060       -1.56420
H          6.59970       -7.78290       -0.59990
H          4.47930       -7.89080        0.76650
H          4.78730       -3.66030        1.17970
H          2.64150       -3.19140       -0.04690
H          2.84700       -5.26330        1.34470
H          0.70010       -4.42550       -0.82010
H         -0.42270       -6.21410       -2.17820
H         -0.04260       -3.94780       -3.19940
H          3.67400       -8.74290       -4.03470
H          1.72650       -8.81690       -2.44200
H          1.34930       -8.17760       -4.86400
H          6.43660       -2.93740       -7.49760
H          4.75900       -4.08150       -9.00830
H          7.04950       -5.07970       -8.65480
H          3.01050       -7.90140       -6.96770
H          5.11940       -7.91010       -8.35570
H          5.16080       -8.85640       -6.02290
H          9.51490       -5.89550       -6.34960
H          9.88490       -4.50840       -4.26480
H          8.61210       -3.55380       -6.23920
H          7.95720       -8.69200       -5.13060
H          6.01010       -8.71610       -3.53630
H          8.29910       -8.01660       -2.71250
H          1.38040       -5.69600       -6.43370
H          0.77960       -4.17260       -5.69490
H          0.13580       -5.10560       -8.63640
H         -0.51890       -3.59830       -7.86500
H          0.23240       -3.52910       -9.50520
