72
mol68-E-0
C          1.27950       -0.51270       -4.75060
S          0.33340       -0.34210       -3.20580
C         -1.30090       -0.15590       -3.99690
Ge        -2.71060        0.06790       -2.66520
Ge        -3.95000        2.01000       -3.31870
Ge        -4.54840        1.85460       -5.62900
Ge        -2.57020        3.94850       -3.09980
Ge        -5.90200        2.21610       -1.94810
Ge        -7.88400        1.83010       -3.22640
Ge        -6.08110        4.43220       -1.06560
Ge        -4.19090       -1.82030       -2.74000
Ge        -5.18420       -1.97630       -4.90760
Ge        -3.01520       -3.87690       -2.41220
Ge        -5.88350       -1.58470       -1.06000
Ge        -5.51910       -3.24980        0.61950
Ge        -8.05770       -1.97920       -1.97420
Ge        -5.79390        0.63530       -0.15510
Ge        -3.73470        0.94750        1.02790
Ge        -3.59150        3.21040        1.78140
Ge        -3.63560       -0.43200        2.98060
Ge        -1.90090        0.41580       -0.42330
Ge        -0.80510       -1.53330        0.42440
Ge        -0.28360        2.18010       -0.39010
C         -7.32400        1.00390        0.98690
S         -7.46600       -0.26740        2.27790
C         -8.94630        0.46640        3.04020
H          1.18020        0.40720       -5.36340
H          0.91460       -1.38800       -5.32140
H          2.34980       -0.66710       -4.50400
H         -1.55460       -1.01150       -4.65650
H         -1.27450        0.75860       -4.62370
H         -3.67160        0.77250       -6.30840
H         -4.28530        3.22420       -6.30460
H         -6.04820        1.50700       -5.78960
H         -3.28760        5.15180       -3.76240
H         -2.32760        4.27110       -1.60830
H         -1.21770        3.69000       -3.81080
H         -7.78620        0.49810       -4.00070
H         -9.10100        1.78230       -2.26810
H         -8.06150        2.98920       -4.23940
H         -4.72190        5.16910       -1.13090
H         -6.57580        4.36240        0.40100
H         -7.10840        5.22330       -1.91440
H         -5.91800       -3.33610       -5.02420
H         -6.20700       -0.84080       -5.12460
H         -4.06990       -1.89240       -5.98130
H         -4.04610       -4.99710       -2.12210
H         -2.24610       -4.22660       -3.71140
H         -2.01920       -3.79140       -1.23510
H         -4.01120       -3.57680        0.71840
H         -6.25980       -4.54340        0.19610
H         -6.04570       -2.79650        2.00200
H         -8.02740       -1.91170       -3.52030
H         -9.04160       -0.91940       -1.41700
H         -8.52960       -3.39250       -1.54830
H         -3.31750        4.15810        0.59260
H         -4.92440        3.60020        2.46930
H         -2.42470        3.32860        2.79430
H         -4.86050       -0.15100        3.88610
H         -2.34500       -0.07900        3.76220
H         -3.57480       -1.93060        2.60620
H         -1.84960       -2.58490        0.86130
H          0.01330       -1.12700        1.67590
H          0.15600       -2.13150       -0.63020
H          0.94260        1.71470        0.43540
H          0.16910        2.49560       -1.83770
H         -0.86370        3.45790        0.26210
H         -8.23940        1.00790        0.35940
H         -7.18750        2.00280        1.45040
H         -9.25520       -0.15720        3.90380
H         -9.77740        0.49920        2.30510
H         -8.72150        1.49220        3.39970
