72
mol66-B-0
C         -1.18040       -2.59860       -8.36080
S         -0.73080       -1.74690       -6.81710
C         -2.24000       -0.73490       -6.76700
Ge        -2.22520        0.41520       -5.19960
Ge        -0.47850        2.05020       -5.34320
Si         1.59320        1.07950       -5.67790
Si        -0.83540        3.41270       -7.17160
Ge        -0.45920        3.36010       -3.33790
Si        -0.28660        5.59920       -3.89120
Si         1.42550        2.88010       -2.09520
Ge        -4.34700        1.52480       -5.15330
Si        -6.02080       -0.03820       -4.85960
Si        -4.76950        2.50240       -7.20470
Ge        -4.38100        3.16470       -3.40580
Si        -4.46210        5.27290       -4.34950
Si        -6.28710        2.94080       -2.11520
Ge        -2.42610        2.87640       -2.04630
Ge        -2.35050        0.59580       -1.31410
Si        -4.32540        0.05120       -0.24960
Si        -0.68820        0.32990        0.26960
Ge        -1.97440       -0.85530       -3.18160
Si        -3.46610       -2.61980       -3.17700
Si         0.12860       -1.79490       -2.98600
C         -2.49500        3.96510       -0.43320
S         -2.47380        5.73960       -0.85480
C         -2.54790        6.35270        0.85770
H         -1.29250       -1.86240       -9.18390
H         -0.37570       -3.31430       -8.62640
H         -2.12900       -3.15850       -8.22520
H         -2.30030       -0.09700       -7.67320
H         -3.13340       -1.39100       -6.71470
H          1.58260        0.32750       -6.94060
H          2.60090        2.14630       -5.76420
H          1.94920        0.18910       -4.57090
H         -1.42450        2.61990       -8.26060
H         -1.72550        4.51790       -6.80300
H          0.45200        3.97510       -7.60440
H         -1.47990        6.06600       -4.60080
H          0.88010        5.77420       -4.76820
H         -0.08650        6.39400       -2.67160
H          1.77890        1.46570       -2.24330
H          2.54340        3.69430       -2.59310
H          1.16850        3.19780       -0.68300
H         -5.76960       -1.18670       -5.74230
H         -7.31190        0.57730       -5.19850
H         -6.06380       -0.48360       -3.46590
H         -3.96510        3.71430       -7.38620
H         -6.19140        2.86930       -7.27010
H         -4.46050        1.53780       -8.27020
H         -3.58140        5.33170       -5.51890
H         -4.06180        6.29640       -3.37640
H         -5.83810        5.53590       -4.79460
H         -6.89810        1.62090       -2.30950
H         -5.93750        3.11350       -0.69800
H         -7.25500        3.97400       -2.51090
H         -5.41760       -0.03560       -1.22130
H         -4.63240        1.08160        0.75290
H         -4.16850       -1.25380        0.40850
H         -0.80430        1.39450        1.27650
H          0.63860        0.37740       -0.35230
H         -0.85650       -0.97920        0.91660
H         -4.72880       -2.22950       -2.54040
H         -3.70940       -3.04920       -4.56190
H         -2.88390       -3.73150       -2.41140
H          0.55170       -2.40800       -4.25060
H          1.09690       -0.78030       -2.56450
H          0.07880       -2.83160       -1.94510
H         -3.38900        3.67880        0.15860
H         -1.59370        3.73970        0.17220
H         -1.65920        6.00750        1.42580
H         -2.55740        7.46160        0.84390
H         -3.47310        5.99490        1.35030
