72
mol68-E-2
C          0.42310        0.42320       -5.86270
S         -0.97870        1.09290       -4.91560
C         -1.14660       -0.32870       -3.78330
Ge        -2.60340       -0.05390       -2.51320
Ge        -3.76870        1.90750       -3.24160
Ge        -4.27650        1.73440       -5.57220
Ge        -2.35290        3.81610       -2.99120
Ge        -5.76910        2.17790       -1.95460
Ge        -7.70630        1.82070       -3.30770
Ge        -5.93090        4.40950       -1.10850
Ge        -4.12420       -1.90780       -2.62440
Ge        -5.03220       -2.07030       -4.82860
Ge        -3.01210       -3.98670       -2.22260
Ge        -5.87730       -1.60980       -1.01800
Ge        -5.62120       -3.25980        0.69610
Ge        -8.02150       -1.96600       -2.01520
Ge        -5.77150        0.61970       -0.13860
Ge        -3.75520        0.89990        1.12340
Ge        -3.58860        3.16900        1.85320
Ge        -3.76820       -0.45460        3.09600
Ge        -1.87730        0.30580       -0.24470
Ge        -0.86360       -1.65650        0.67180
Ge        -0.22090        2.03210       -0.16800
C         -7.33750        1.03950        0.93510
S         -7.56200       -0.21030        2.23530
C         -9.05400        0.56830        2.92710
H          0.12780       -0.51980       -6.36780
H          1.28010        0.23740       -5.18720
H          0.72690        1.16310       -6.63110
H         -0.21130       -0.54140       -3.22520
H         -1.38830       -1.22350       -4.39220
H         -3.39890        0.62290       -6.20140
H         -3.95350        3.08810       -6.25390
H         -5.77630        1.41970       -5.78950
H         -3.01400        5.02660       -3.69780
H         -2.16340        4.15340       -1.49520
H         -0.97930        3.51640       -3.64300
H         -7.60900        0.47630       -4.06030
H         -8.96200        1.81440       -2.39940
H         -7.81480        2.96970       -4.34180
H         -4.55300        5.11340       -1.12760
H         -6.48610        4.37130        0.33750
H         -6.90370        5.21260       -2.00850
H         -5.79290       -3.41410       -4.95770
H         -6.01790       -0.91440       -5.10170
H         -3.87360       -2.02720       -5.85680
H         -4.08040       -5.07840       -1.96060
H         -2.19950       -4.37200       -3.48470
H         -2.06290       -3.90820       -1.00700
H         -4.12680       -3.62050        0.86070
H         -6.37470       -4.54150        0.25930
H         -6.19240       -2.77530        2.05000
H         -7.92700       -1.92040       -3.55950
H         -9.00160       -0.87600       -1.51230
H         -8.54380       -3.36190       -1.59100
H         -3.24410        4.09370        0.66460
H         -4.93860        3.59920        2.48110
H         -2.46130        3.27390        2.91140
H         -5.02180       -0.13270        3.94700
H         -2.50230       -0.12110        3.92510
H         -3.72810       -1.95910        2.74360
H         -1.94960       -2.67740        1.07900
H         -0.08700       -1.25240        1.95040
H          0.12500       -2.29140       -0.33500
H          0.95930        1.54970        0.71280
H          0.29750        2.31710       -1.59980
H         -0.79630        3.33190        0.44360
H         -8.22630        1.05630        0.27080
H         -7.19610        2.04120        1.39110
H         -9.41250       -0.03610        3.78520
H         -9.85360        0.61040        2.15830
H         -8.81950        1.59330        3.28240
