72
mol68-E-1
C          0.18650       -1.25050       -5.83490
S         -1.33930       -1.47450       -4.86930
C         -1.10530       -0.01890       -3.79330
Ge        -2.57420        0.16400       -2.52060
Ge        -3.79490        2.11620       -3.17940
Ge        -4.28910        2.01700       -5.51730
Ge        -2.43770        4.05510       -2.85020
Ge        -5.80700        2.27780       -1.89240
Ge        -7.72790        1.91500       -3.26710
Ge        -6.03840        4.46980       -0.96300
Ge        -4.03840       -1.72870       -2.70910
Ge        -4.93340       -1.83410       -4.92210
Ge        -2.86620       -3.78740       -2.38130
Ge        -5.80540       -1.54440       -1.10080
Ge        -5.50610       -3.25000        0.55060
Ge        -7.93440       -1.92580       -2.12070
Ge        -5.76930        0.65220       -0.13690
Ge        -3.76670        0.94400        1.14420
Ge        -3.67060        3.18760        1.96040
Ge        -3.74630       -0.48440        3.06390
Ge        -1.86710        0.45840       -0.23670
Ge        -0.79840       -1.50630        0.60940
Ge        -0.26330        2.22910       -0.08680
C         -7.35090        0.98410        0.94460
S         -7.54260       -0.32040        2.19540
C         -9.05960        0.38660        2.90930
H          1.07300       -1.32140       -5.17110
H          0.17140       -0.26610       -6.34080
H          0.24810       -2.04720       -6.60400
H         -1.00200        0.92410       -4.36920
H         -0.16980       -0.16750       -3.21660
H         -3.37640        0.95680       -6.18410
H         -4.00420        3.40460       -6.14560
H         -5.77800        1.66630       -5.75330
H         -3.13210        5.27140       -3.51340
H         -2.26350        4.34070       -1.34160
H         -1.05350        3.82140       -3.50650
H         -7.58790        0.60370       -4.06980
H         -8.98600        1.83690       -2.36560
H         -7.86710        3.09880       -4.25740
H         -4.68210        5.21460       -0.94900
H         -6.59740        4.36010        0.47790
H         -7.03160        5.27730       -1.83640
H         -5.65320       -3.19400       -5.10570
H         -5.95230       -0.69840       -5.15570
H         -3.77300       -1.71750       -5.94260
H         -3.90230       -4.91960       -2.16600
H         -2.03800       -4.10010       -3.65330
H         -1.92400       -3.72710       -1.15920
H         -4.00210       -3.57220        0.70840
H         -6.21950       -4.53600        0.06200
H         -6.09640       -2.83470        1.91930
H         -7.83580       -1.81870       -3.66180
H         -8.94840       -0.88540       -1.58140
H         -8.41630       -3.35180       -1.75230
H         -3.34970        4.16670        0.80930
H         -5.03500        3.55330        2.59780
H         -2.55070        3.28560        3.02700
H         -5.01180       -0.23250        3.92070
H         -2.49380       -0.14520        3.91100
H         -3.65990       -1.97260        2.65480
H         -1.85500       -2.57380        0.97250
H         -0.03880       -1.12830        1.90600
H          0.21220       -2.07280       -0.41610
H          0.92770        1.74870        0.78050
H          0.25140        2.58370       -1.50430
H         -0.87940        3.48700        0.57100
H         -8.23740        0.99980        0.27730
H         -7.24110        1.97150        1.43890
H         -9.40290       -0.26040        3.74220
H         -9.85730        0.43410        2.13890
H         -8.85710        1.40390        3.30440
