72
mol68-C-2
C         -3.52070       -4.62550        0.39260
S         -2.19620       -4.52780       -0.85360
C         -0.86660       -4.09960        0.31800
Ge         0.82380       -3.88640       -0.62280
Ge         1.47570       -5.87320       -1.80510
Ge        -0.15420       -6.37670       -3.47910
Ge         1.57210       -7.78190       -0.36060
Ge         3.62490       -5.51520       -2.81350
Ge         5.23710       -6.91100       -1.72570
Ge         3.60440       -6.15130       -5.11870
Ge         0.47910       -2.12820       -2.20900
Ge        -1.41350       -2.62360       -3.58550
Ge        -0.02390       -0.10190       -1.04640
Ge         2.44610       -1.86250       -3.54450
Ge         2.03280       -2.52600       -5.80300
Ge         3.11410        0.43320       -3.61620
Ge         4.21450       -3.19480       -2.63810
Ge         4.52300       -2.61340       -0.33410
Ge         4.94050       -0.26810       -0.15000
Ge         6.41920       -3.73320        0.60150
Ge         2.56000       -3.22500        0.89800
Ge         1.80480       -1.40100        2.24820
Ge         3.12000       -5.00380        2.39390
C          5.79230       -2.77000       -3.69290
S          7.17130       -3.86140       -3.23560
C          8.33920       -3.12100       -4.41800
H         -3.32510       -5.46980        1.08570
H         -3.57960       -3.67800        0.96590
H         -4.48910       -4.79590       -0.12040
H         -1.08320       -3.17250        0.88740
H         -0.75590       -4.93040        1.04400
H         -1.57170       -6.30210       -2.85790
H          0.10590       -7.80620       -4.01750
H         -0.05320       -5.37710       -4.65140
H          1.61520       -7.36890        1.12860
H          0.29600       -8.63260       -0.58180
H          2.79490       -8.66290       -0.71690
H          6.66450       -6.31990       -1.80380
H          5.22880       -8.29820       -2.41630
H          4.85290       -7.11750       -0.24310
H          2.15550       -6.27140       -5.64910
H          4.38440       -5.09550       -5.94240
H          4.29930       -7.52900       -5.26200
H         -0.96700       -3.13450       -4.97650
H         -2.29470       -3.69020       -2.88790
H         -2.23890       -1.32680       -3.78110
H          1.23820        0.43950       -0.33890
H         -1.13350       -0.37910       -0.00060
H         -0.51770        0.95340       -2.06800
H          3.37380       -2.54000       -6.57940
H          1.39350       -3.93080       -5.85010
H          1.06110       -1.50970       -6.45450
H          4.65870        0.52200       -3.53370
H          2.63760        1.04770       -4.95670
H          2.47670        1.23520       -2.45640
H          6.03490        0.13300       -1.17130
H          3.64810        0.53240       -0.42450
H          5.42540        0.04350        1.28850
H          6.14770       -5.24860        0.74560
H          6.67430       -3.15770        2.01760
H          7.67330       -3.48110       -0.27140
H          0.25790       -1.33070        2.19770
H          2.41090       -0.06280        1.76170
H          2.25830       -1.64350        3.71010
H          1.86140       -5.46670        3.16840
H          4.17400       -4.48470        3.40430
H          3.73460       -6.18560        1.61100
H          6.06810       -1.71160       -3.50620
H          5.54520       -2.90500       -4.76640
H          9.31610       -3.63960       -4.33410
H          7.95840       -3.23740       -5.45410
H          8.48310       -2.04450       -4.18890
