180
mol61-0
C    -2.67972   -0.62737   -5.91031
S    -1.56073   -1.32126   -4.65360
C    -1.84158    0.00361   -3.44450
Ge    -0.84783   -0.10519   -1.73346
Ge    -1.30224    2.36013   -0.99301
C    -0.41767    3.93993   -1.99560
C     1.03670    4.04532   -1.63716
C    -1.04880    5.31210   -1.66365
C    -0.47508    3.80797   -3.49161
C    -3.22301    2.94874   -1.48930
C    -3.28402    3.36215   -2.96888
C    -4.29021    1.87702   -1.32135
C    -3.65568    4.14435   -0.68548
Ge    -0.55014    2.42550    1.44917
C     0.72194    3.91798    2.11803
C     0.65233    4.00408    3.65228
C     2.18474    3.60282    1.77804
C     0.36005    5.33947    1.60141
C    -2.07943    2.76991    2.79002
C    -2.29976    4.24158    3.04370
C    -3.41756    2.25329    2.28733
C    -1.79085    2.10825    4.15438
Ge     1.64714   -0.69106   -2.16580
C     2.20333    0.55329   -3.71411
C     1.52243    0.22127   -5.05626
C     3.73190    0.59459   -3.97309
C     1.74784    1.91816   -3.40201
C     2.17082   -2.46955   -3.12464
C     3.46366   -2.29546   -3.93437
C     2.41320   -3.70202   -2.23407
C     1.10323   -2.84280   -4.11541
Ge     2.77270   -0.23420    0.13534
C     4.09633   -1.60085    1.03140
C     4.50016   -2.69016    0.01723
C     5.42940   -0.99664    1.57251
C     3.47634   -2.26238    2.28298
C     4.13216    1.27132   -0.22398
C     5.31459    0.79025   -1.08072
C     3.49040    2.40207   -1.00208
C     4.70383    1.86269    1.03642
Ge     0.72301    0.20413    1.71851
Ge    -0.84939   -1.83833    1.94596
C     0.15348   -3.57863    2.14097
C    -0.71258   -4.82162    1.89872
C     1.16684   -3.57901    1.07114
C     0.85184   -3.74032    3.50742
C    -2.02874   -1.85512    3.64078
C    -1.19755   -1.58505    4.92025
C    -2.75224   -3.20349    3.85589
C    -3.10796   -0.77508    3.54188
Ge    -2.03341   -1.89632   -0.29023
C    -2.09501   -3.69611   -1.25919
C    -2.87428   -4.77706   -0.46879
C    -0.66747   -4.19218   -1.44945
C    -2.75420   -3.54902   -2.66123
C    -3.99348   -1.58686    0.08792
C    -4.90272   -1.63601   -1.15480
C    -4.56168   -2.57267    1.11898
C    -4.08681   -0.24977    0.69595
C     1.43250    0.52219    3.49958
S     2.82729    0.47876    3.80244
C     3.36962    0.83046    5.27134
H    -2.33206    0.38143   -6.21605
H    -2.68042   -1.29116   -6.79881
H    -3.71246   -0.56403   -5.50860
H    -2.92223    0.04310   -3.24357
H    -1.55539    0.94062   -3.93284
H     0.00000    0.00000    0.00000
H     1.54441    4.96403   -2.00495
H     1.17702    3.89400   -0.57171
H    -2.01229    5.47515   -2.18263
H    -0.40352    6.15300   -2.00140
H    -1.19834    5.43255   -0.58381
H     0.00000    0.00000    0.00000
H    -0.81483    2.91501   -3.98077
H    -0.08378    4.59968   -4.12479
H    -4.22392    3.90076   -3.22320
H    -3.18718    2.49354   -3.64829
H     0.00000    0.00000    0.00000
H    -3.81949    0.91197   -1.49853
H    -5.12775    1.98082   -2.04695
H    -4.77805    1.92715   -0.33261
H    -4.62190    4.60849   -0.86133
H     0.00000    0.00000    0.00000
H    -3.05221    4.52679    0.11991
H     1.03138    3.08578    4.13360
H     1.24291    4.85354    4.06007
H     0.00000    0.00000    0.00000
H     2.83605    3.48709    2.67193
H     2.21369    2.64978    1.24167
H     2.65984    4.39728    1.16699
H     0.74658    5.56610    0.59675
H    -0.72201    5.52413    1.59440
H     0.81729    6.12754    2.23814
H    -2.76695    4.87537    2.30104
H    -2.13217    4.68491    4.02119
H     0.00000    0.00000    0.00000
H     0.00000    0.00000    0.00000
H    -4.21359    2.30589    3.06223
H    -3.77247    2.81466    1.42170
H    -2.71657    1.98268    4.75570
H    -1.33178    1.12894    4.00469
H    -1.11802    2.69280    4.80441
H     0.43340    0.32783   -4.98554
H     1.79554   -0.77329   -5.43947
H     1.84640    0.93901   -5.84329
H     4.02083    0.05444   -4.90027
H     4.26850    0.11350   -3.15685
H     4.13467    1.62111   -4.10938
H     0.00000    0.00000    0.00000
H     1.99206    2.75219   -4.05513
H     1.99206    2.75219   -4.05513
H     3.67581   -3.17356   -4.58462
H     4.34285   -2.12940   -3.28011
H     0.00000    0.00000    0.00000
H     1.86100   -4.60609   -2.57141
H     3.47507   -4.02618   -2.19401
H     2.10873   -3.47659   -1.23235
H     1.31582   -2.97522   -5.17274
H     0.14387   -3.19215   -3.78546
H     0.00000    0.00000    0.00000
H     5.51411   -3.10201    0.21270
H     3.83065   -3.56350    0.06659
H     4.50079   -2.28645   -1.00742
H     6.03118   -1.79181    2.06813
H     5.25570   -0.24802    2.36530
H     6.11065   -0.59774    0.81021
H     3.51379   -3.36998    2.25315
H     3.97996   -2.00824    3.24118
H     2.45491   -1.90439    2.40343
H     0.00000    0.00000    0.00000
H     6.27974    1.31420   -0.90547
H     5.41625   -0.29868   -1.21375
H     3.86131    2.49472   -2.03852
H     2.42125    2.17862   -1.01137
H     3.67039    3.40724   -0.56978
H     5.48895    2.61180    0.98559
H     4.25876    1.69230    1.99459
H     0.00000    0.00000    0.00000
H    -0.09481   -5.71825    1.66823
H    -1.34468   -5.11502    2.74951
H     0.00000    0.00000    0.00000
H     0.00000    0.00000    0.00000
H     1.80167   -4.44457    0.90360
H     1.29642   -2.68479    0.48388
H     0.18460   -4.21555    4.25232
H     1.18471   -2.76860    3.91959
H     1.72951   -4.41811    3.43421
H    -0.46884   -0.79112    4.76123
H    -1.84274   -1.29871    5.77853
H    -0.64348   -2.46749    5.27730
H    -2.11492   -3.94180    4.37808
H    -3.64256   -3.08211    4.51173
H    -3.08899   -3.63490    2.89852
H    -4.07463   -1.15836    3.17836
H    -2.74774   -0.02114    2.84929
H    -3.34851   -0.29799    4.51434
H    -2.48230   -5.79720   -0.67484
H    -3.94581   -4.81659   -0.74489
H    -2.82386   -4.59737    0.61559
H    -0.57014   -4.88969   -2.30866
H    -0.03431   -3.30831   -1.59025
H    -0.30264   -4.77214   -0.59314
H    -3.65874   -4.17733   -2.79802
H    -3.06793   -2.51453   -2.83974
H    -2.08663   -3.83644   -3.49767
H    -5.91117   -1.23105   -0.91780
H    -5.05359   -2.67836   -1.49885
H    -4.49869   -1.05574   -1.99839
H    -5.47498   -2.17290    1.61348
H     0.00000    0.00000    0.00000
H    -4.88908   -3.52896    0.68252
H    -3.21173    0.38364    0.68418
H    -5.02390    0.12236    1.10184
H     0.00000    0.00000    0.00000
H     0.00000    0.00000    0.00000
H     0.77736    0.84796    4.28544
H     4.47408    0.72952    5.28775
H     3.09151    1.87300    5.53089
H     2.92476    0.13159    6.00966
